#	Name:			BDB50007277
#	Creating user name:	trannguyen
#	Creation time:		Wed Dec  7 14:36:19 2022


#	Modifying user name:	trannguyen
#	Modification time:	Wed Dec  7 14:36:19 2022

@<TRIPOS>MOLECULE
BDB50007277
 37 38 0 0 0
SMALL
GASTEIGER

@<TRIPOS>ATOM
      1 C          17.9305  -24.1773   15.1107 C.ar    1  UNL1        0.1305
      2 C          15.9600  -25.6206   15.3900 C.ar    1  UNL1        0.0323
      3 C          16.7458  -24.7451   14.6141 C.ar    1  UNL1        0.0140
      4 C          18.3885  -24.5238   16.4105 C.ar    1  UNL1        0.0101
      5 C          17.6730  -25.4919   17.1288 C.ar    1  UNL1        0.0101
      6 C          16.4837  -26.0070   16.6320 C.ar    1  UNL1        0.1291
      7 O          15.9436  -27.0058   17.4761 O.3     1  UNL1       -0.5058
      8 H          15.1401  -27.4293   17.2461 H       1  UNL1        0.2922
      9 C          14.5353  -26.1672   14.8692 C.ar    1  UNL1        0.0028
     10 C          14.4602  -27.2933   14.0531 C.ar    1  UNL1        0.0024
     11 C          13.3152  -25.6140   15.2526 C.ar    1  UNL1        0.0024
     12 C          12.0622  -27.2446   14.0082 C.ar    1  UNL1        0.1401
     13 C          13.2562  -27.8211   13.6083 C.ar    1  UNL1        0.0296
     14 C          12.0944  -26.1389   14.8433 C.ar    1  UNL1        0.0296
     15 F          10.8938  -27.7485   13.5879 F       1  UNL1       -0.2042
     16 C          19.6100  -23.8718   17.1328 C.3     1  UNL1        0.0251
     17 C          21.0693  -24.3687   16.8887 C.3     1  UNL1        0.0048
     18 C          19.3837  -22.5398   17.9202 C.3     1  UNL1        0.0048
     19 C          16.3049  -24.3633   13.1849 C.3     1  UNL1        0.0254
     20 C          15.9032  -22.8932   12.9356 C.3     1  UNL1        0.0048
     21 C          17.0898  -25.0403   12.0290 C.3     1  UNL1        0.0048
     22 C          18.1335  -26.2232   18.4795 C.3     1  UNL1        0.0251
     23 C          18.3781  -25.4721   19.8210 C.3     1  UNL1        0.0048
     24 C          19.3056  -27.2030   18.2129 C.3     1  UNL1        0.0048
     25 O          18.5627  -23.2003   14.1676 O.3     1  UNL1       -0.4735
     26 C          19.7930  -23.5732   13.5905 C.3     1  UNL1        0.2344
     27 C          20.9346  -22.5962   13.6258 C.3     1  UNL1        0.1564
     28 O          21.2941  -22.2309   12.2896 O.3     1  UNL1       -0.3806
     29 H          20.5170  -21.8740   11.8318 H       1  UNL1        0.2105
     30 C          20.3620  -21.3984   14.4392 C.3     1  UNL1        0.0627
     31 C          21.3349  -20.8438   15.4694 C.3     1  UNL1        0.1186
     32 O          22.6396  -20.7945   14.8948 O.3     1  UNL1       -0.3840
     33 H          22.6246  -20.2296   14.1065 H       1  UNL1        0.2104
     34 C          20.8811  -19.4215   15.8651 C.3     1  UNL1        0.0710
     35 C          21.9486  -18.4274   15.5123 C.2     1  UNL1        0.0528
     36 O          22.8512  -18.0405   16.4494 O.co2   1  UNL1       -0.5491
     37 O          21.9920  -17.9419   14.3767 O.co2   1  UNL1       -0.5491
@<TRIPOS>UNITY_ATOM_ATTR
36 1
charge -1
@<TRIPOS>BOND
     1     4     1   ar
     2     5     4   ar
     3     6     2   ar
     4    25     1    1
     5    35    34    1
     6    34    31    1
     7     9     2    1
     8    36    35   ar
     9    37    35   ar
    10    16     4    1
    11    19     3    1
    12    22     5    1
    13    31    30    1
    14    30    27    1
    15     7     6    1
    16    10     9   ar
    17    11     9   ar
    18    26    25    1
    19    12    14   ar
    20    13    10   ar
    21    14    11   ar
    22    15    12    1
    23    27    26    1
    24    31    32    1
    25    28    27    1
    26    20    19    1
    27    21    19    1
    28    17    16    1
    29    23    22    1
    30    24    22    1
    31    18    16    1
    32     6     5   ar
    33    12    13   ar
    34     2     3   ar
    35     3     1   ar
    36     7     8    1
    37    32    33    1
    38    28    29    1
#	Name:			BDB50007286
#	Creating user name:	trannguyen
#	Creation time:		Wed Dec  7 14:36:19 2022


#	Modifying user name:	trannguyen
#	Modification time:	Wed Dec  7 14:36:19 2022

@<TRIPOS>MOLECULE
BDB50007286
 30 32 0 0 0
SMALL
GASTEIGER

@<TRIPOS>ATOM
      1 C          20.4774  -19.9414   16.6724 C.3     1  UNL1        0.0483
      2 C          20.6474  -18.8312   15.6193 C.3     1  UNL1        0.0253
      3 C          20.9619  -19.4008   14.2537 C.2     1  UNL1       -0.0305
      4 C          20.4824  -21.4062   16.4906 C.3     1  UNL1        0.1730
      5 C          21.0473  -21.7022   15.1726 C.3     1  UNL1        0.0624
      6 C          21.1586  -20.7045   14.0403 C.2     1  UNL1       -0.0236
      7 C          21.6629  -21.1190   12.7389 C.2     1  UNL1       -0.0091
      8 C          22.5342  -22.1288   12.6995 C.2     1  UNL1       -0.0268
      9 C          22.9764  -22.7864   13.9940 C.3     1  UNL1        0.0224
     10 C          21.7182  -23.0540   14.8230 C.3     1  UNL1        0.0117
     11 C          23.6797  -24.1177   13.6704 C.3     1  UNL1        0.0047
     12 C          21.8458  -17.9505   16.0220 C.3     1  UNL1        0.0048
     13 C          20.7644  -23.9188   13.9754 C.3     1  UNL1        0.0045
     14 C          19.3299  -23.7966   14.5243 C.3     1  UNL1        0.0437
     15 C          18.3257  -24.1616   13.4169 C.3     1  UNL1        0.1713
     16 O          17.0322  -23.6287   13.7768 O.3     1  UNL1       -0.4521
     17 C          16.1351  -23.3784   12.7064 C.2     1  UNL1        0.3194
     18 C          16.5295  -23.4715   11.2454 C.3     1  UNL1        0.1388
     19 C          17.8851  -24.1363   11.0335 C.3     1  UNL1        0.1252
     20 C          18.8473  -23.6176   12.0842 C.3     1  UNL1        0.0734
     21 O          15.0064  -22.9523   12.9796 O.2     1  UNL1       -0.2500
     22 O          17.7634  -25.5514   11.2020 O.3     1  UNL1       -0.3838
     23 H          17.4436  -25.7441   12.0972 H       1  UNL1        0.2104
     24 O          21.3819  -22.0128   17.5350 O.3     1  UNL1       -0.4519
     25 C          20.0487  -22.4280   17.7917 C.2     1  UNL1        0.3163
     26 O          19.1078  -21.6281   17.8532 O.2     1  UNL1       -0.2501
     27 C          19.7739  -23.8869   17.9932 C.3     1  UNL1        0.0991
     28 C          21.0223  -24.5657   18.5872 C.3     1  UNL1        0.0116
     29 C          18.5774  -24.0583   18.9478 C.3     1  UNL1        0.0111
     30 C          17.3220  -24.4385   18.1403 C.3     1  UNL1        0.0006
@<TRIPOS>BOND
     1    15    16    1
     2     2     3    1
     3     3     6    2
     4     5     4    1
     5     5    10    1
     6     6     7    1
     7    15    20    1
     8    16    17    1
     9    17    18    1
    10    18    19    1
    11    19    20    1
    12     7     8    2
    13    17    21    2
    14     8     9    1
    15    19    22    1
    16     9    10    1
    17     5     6    1
    18     4    24    1
    19     9    11    1
    20    24    25    1
    21    25    26    2
    22    10    13    1
    23    25    27    1
    24     1     2    1
    25    27    29    1
    26    13    14    1
    27    27    28    1
    28     1     4    1
    29    29    30    1
    30    15    14    1
    31     2    12    1
    32    22    23    1
#	Name:			BDB50013210
#	Creating user name:	trannguyen
#	Creation time:		Wed Dec  7 14:36:19 2022


#	Modifying user name:	trannguyen
#	Modification time:	Wed Dec  7 14:36:19 2022

@<TRIPOS>MOLECULE
BDB50013210
 34 36 0 0 0
SMALL
GASTEIGER

@<TRIPOS>ATOM
      1 N          16.0233  -25.4628   15.1316 N.ar    1  UNL1       -0.3086
      2 C          17.7909  -24.1420   14.9767 C.ar    1  UNL1        0.0132
      3 C          16.6112  -24.5489   14.3424 C.ar    1  UNL1        0.0410
      4 C          17.8787  -24.8802   16.1467 C.ar    1  UNL1        0.0186
      5 C          16.7600  -25.7032   16.2120 C.ar    1  UNL1        0.0798
      6 C          18.9838  -24.8680   17.1593 C.ar    1  UNL1        0.0016
      7 C          19.0680  -23.8180   18.0654 C.ar    1  UNL1        0.0024
      8 C          19.9156  -25.9007   17.2307 C.ar    1  UNL1        0.0024
      9 C          20.9930  -24.8362   19.0981 C.ar    1  UNL1        0.1401
     10 C          20.9157  -25.8879   18.1946 C.ar    1  UNL1        0.0296
     11 C          20.0699  -23.7996   19.0309 C.ar    1  UNL1        0.0296
     12 F          21.9571  -24.8230   20.0329 F       1  UNL1       -0.2042
     13 C          14.7605  -26.1245   14.9027 C.ar    1  UNL1        0.0637
     14 C          13.5380  -25.5574   15.2362 C.ar    1  UNL1        0.0175
     15 C          14.7739  -27.3948   14.3291 C.ar    1  UNL1        0.0175
     16 C          13.5829  -28.0671   14.0849 C.ar    1  UNL1        0.0015
     17 C          12.3429  -26.2256   14.9992 C.ar    1  UNL1        0.0015
     18 C          12.3656  -27.4847   14.4174 C.ar    1  UNL1        0.0001
     19 C          16.0608  -24.1260   12.9599 C.3     1  UNL1        0.0387
     20 C          15.5556  -22.6772   12.7659 C.3     1  UNL1        0.0062
     21 C          16.8485  -24.7100   11.7690 C.3     1  UNL1        0.0062
     22 C          18.8153  -23.1486   14.5414 C.2     1  UNL1       -0.0010
     23 C          19.9839  -23.4895   14.0252 C.2     1  UNL1        0.0026
     24 C          20.9507  -22.4660   13.5676 C.3     1  UNL1        0.1349
     25 O          20.9120  -22.4052   12.1362 O.3     1  UNL1       -0.3800
     26 H          20.0098  -22.1989   11.8456 H       1  UNL1        0.2108
     27 C          20.5516  -21.1313   14.2448 C.3     1  UNL1        0.0634
     28 C          21.4473  -20.7986   15.4420 C.3     1  UNL1        0.1188
     29 O          22.8106  -20.7420   15.0139 O.3     1  UNL1       -0.3840
     30 H          22.9066  -20.0618   14.3292 H       1  UNL1        0.2104
     31 C          21.0176  -19.4324   16.0137 C.3     1  UNL1        0.0710
     32 C          22.0092  -18.3727   15.6293 C.2     1  UNL1        0.0528
     33 O          22.0418  -17.8993   14.3570 O.co2   1  UNL1       -0.5491
     34 O          22.8216  -17.9572   16.4624 O.co2   1  UNL1       -0.5491
@<TRIPOS>UNITY_ATOM_ATTR
33 1
charge -1
@<TRIPOS>BOND
     1     2     3   ar
     2     3     1   ar
     3     4     5   ar
     4     5     1   ar
     5    22     2    1
     6    32    31    1
     7     6     4    1
     8    31    28    1
     9    13     1    1
    10    23    22    2
    11    33    32   ar
    12    19     3    1
    13    34    32   ar
    14    28    27    1
    15    27    24    1
    16     7     6   ar
    17     8     6   ar
    18     9    10   ar
    19    23    24    1
    20    10     8   ar
    21    11     7   ar
    22    12     9    1
    23    28    29    1
    24    24    25    1
    25    14    13   ar
    26    15    13   ar
    27    20    19    1
    28    21    19    1
    29    16    15   ar
    30    17    14   ar
    31    18    17   ar
    32     2     4   ar
    33    16    18   ar
    34    11     9   ar
    35    29    30    1
    36    25    26    1
#	Name:			BDB50160720
#	Creating user name:	trannguyen
#	Creation time:		Wed Dec  7 14:36:19 2022


#	Modifying user name:	trannguyen
#	Modification time:	Wed Dec  7 14:36:19 2022

@<TRIPOS>MOLECULE
BDB50160720
 12 11 0 0 0
SMALL
GASTEIGER

@<TRIPOS>ATOM
      1 C          21.2306  -20.6525   15.4416 C.3     1  UNL1        0.0988
      2 C          20.7867  -21.6233   16.5630 C.3     1  UNL1        0.0301
      3 O          22.6440  -20.7445   15.2392 O.3     1  UNL1       -0.3860
      4 H          22.9103  -20.1326   14.5352 H       1  UNL1        0.2103
      5 C          20.4992  -21.0059   14.1250 C.3     1  UNL1        0.0689
      6 C          21.4682  -21.3343   13.0122 C.2     1  UNL1        0.0527
      7 O          21.7292  -20.4798   12.1603 O.co2   1  UNL1       -0.5491
      8 O          22.0947  -22.5416   12.9674 O.co2   1  UNL1       -0.5491
      9 C          20.8571  -19.2026   15.8310 C.3     1  UNL1        0.0689
     10 C          21.9730  -18.2299   15.5237 C.2     1  UNL1        0.0527
     11 O          22.1209  -17.8184   14.3694 O.co2   1  UNL1       -0.5491
     12 O          22.8408  -17.8347   16.4946 O.co2   1  UNL1       -0.5491
@<TRIPOS>UNITY_ATOM_ATTR
8 1
charge -1
12 1
charge -1
@<TRIPOS>BOND
     1     6     5    1
     2     5     1    1
     3     1     9    1
     4     9    10    1
     5     6     7   ar
     6     6     8   ar
     7    10    11   ar
     8    10    12   ar
     9     1     2    1
    10     1     3    1
    11     3     4    1
#	Name:			BDB50215667
#	Creating user name:	trannguyen
#	Creation time:		Wed Dec  7 14:36:19 2022


#	Modifying user name:	trannguyen
#	Modification time:	Wed Dec  7 14:36:19 2022

@<TRIPOS>MOLECULE
BDB50215667
 41 44 0 0 0
SMALL
GASTEIGER

@<TRIPOS>ATOM
      1 C          19.2246  -26.3777   15.5132 C.ar    1  UNL1        0.0092
      2 C          19.3022  -25.4301   14.4570 C.ar    1  UNL1        0.0368
      3 N          18.0484  -25.1483   14.0550 N.ar    1  UNL1       -0.3292
      4 C          17.1557  -25.8180   14.7831 C.ar    1  UNL1        0.1099
      5 C          17.8549  -26.6152   15.6843 C.ar    1  UNL1       -0.0008
      6 C          17.2699  -27.5926   16.6813 C.3     1  UNL1        0.0298
      7 C          15.6296  -25.6942   14.5876 C.2     1  UNL1        0.2648
      8 C          15.8394  -27.9482   16.4494 C.3     1  UNL1        0.0263
      9 N          14.6651  -26.1652   15.4986 N.am    1  UNL1       -0.2708
     10 C          15.0589  -26.7131   16.7196 C.3     1  UNL1        0.0944
     11 O          15.1864  -25.0896   13.6059 O.2     1  UNL1       -0.2683
     12 C          20.3555  -27.1163   16.4366 C.ar    1  UNL1        0.0010
     13 C          20.9650  -28.3189   16.1009 C.ar    1  UNL1        0.0023
     14 C          21.9125  -28.9548   16.8883 C.ar    1  UNL1        0.0296
     15 C          22.3081  -28.3728   18.0783 C.ar    1  UNL1        0.1401
     16 C          21.7434  -27.1624   18.4494 C.ar    1  UNL1        0.0296
     17 C          20.7867  -26.5577   17.6381 C.ar    1  UNL1        0.0023
     18 F          23.2255  -28.9719   18.8504 F       1  UNL1       -0.2042
     19 C          17.6289  -24.3142   12.8853 C.3     1  UNL1        0.0854
     20 C          17.8603  -22.7756   12.9258 C.3     1  UNL1        0.0245
     21 C          18.0126  -24.9460   11.5297 C.3     1  UNL1        0.0245
     22 C          20.5525  -24.7208   13.7628 C.3     1  UNL1        0.0463
     23 C          21.2393  -23.6707   14.5630 C.3     1  UNL1        0.0355
     24 C          21.6948  -22.4037   13.8673 C.3     1  UNL1        0.1133
     25 O          21.4578  -22.4901   12.4580 O.3     1  UNL1       -0.3844
     26 H          20.5150  -22.6521   12.2980 H       1  UNL1        0.2103
     27 C          20.8168  -21.2892   14.4841 C.3     1  UNL1        0.0588
     28 C          21.5157  -20.5869   15.6355 C.3     1  UNL1        0.1185
     29 O          22.8666  -20.2954   15.2819 O.3     1  UNL1       -0.3840
     30 H          22.8794  -19.7176   14.5028 H       1  UNL1        0.2104
     31 C          20.7781  -19.2761   15.9476 C.3     1  UNL1        0.0710
     32 C          21.6618  -18.1347   15.5609 C.2     1  UNL1        0.0528
     33 O          22.2125  -17.3553   16.5257 O.co2   1  UNL1       -0.5491
     34 O          21.8687  -17.8841   14.3685 O.co2   1  UNL1       -0.5491
     35 C          13.2350  -25.9903   15.1200 C.3     1  UNL1        0.1205
     36 C          12.4650  -27.0693   14.2893 C.ar    1  UNL1       -0.0023
     37 C          11.1003  -27.0243   14.0131 C.ar    1  UNL1       -0.0026
     38 C          10.4845  -28.0187   13.2636 C.ar    1  UNL1       -0.0003
     39 C          11.2330  -29.0812   12.7768 C.ar    1  UNL1       -0.0000
     40 C          12.5940  -29.1410   13.0466 C.ar    1  UNL1       -0.0003
     41 C          13.2021  -28.1414   13.7976 C.ar    1  UNL1       -0.0026
@<TRIPOS>UNITY_ATOM_ATTR
33 1
charge -1
@<TRIPOS>BOND
     1    27    28    1
     2    16    17   ar
     3    17    12   ar
     4     1    12    1
     5     2    22    1
     6    15    18    1
     7    28    31    1
     8     3    19    1
     9     5     1   ar
    10    19    20    1
    11    28    29    1
    12    19    21    1
    13    22    23    1
    14    31    32    1
    15     4     5   ar
    16     1     2   ar
    17     5     6    1
    18    32    33   ar
    19     4     7    1
    20    23    24    1
    21     6     8    1
    22    32    34   ar
    23     7     9   am
    24     2     3   ar
    25     8    10    1
    26     9    10    1
    27    24    27    1
    28     7    11    2
    29    12    13   ar
    30     9    35    1
    31     3     4   ar
    32    35    36    1
    33    13    14   ar
    34    36    37   ar
    35    24    25    1
    36    37    38   ar
    37    14    15   ar
    38    38    39   ar
    39    39    40   ar
    40    15    16   ar
    41    40    41   ar
    42    41    36   ar
    43    25    26    1
    44    29    30    1
#	Name:			BDB50215675
#	Creating user name:	trannguyen
#	Creation time:		Wed Dec  7 14:36:19 2022


#	Modifying user name:	trannguyen
#	Modification time:	Wed Dec  7 14:36:19 2022

@<TRIPOS>MOLECULE
BDB50215675
 45 49 0 0 0
SMALL
GASTEIGER

@<TRIPOS>ATOM
      1 N          19.0756  -23.5661   15.0491 N.ar    1  UNL1       -0.2901
      2 C          18.7826  -24.0659   16.3520 C.ar    1  UNL1        0.2769
      3 O          19.4160  -23.7198   17.3398 O.2     1  UNL1       -0.2654
      4 C          17.6229  -24.9175   16.5435 C.ar    1  UNL1        0.1165
      5 C          16.7171  -25.1937   15.5435 C.ar    1  UNL1        0.0230
      6 C          15.7063  -26.0015   16.1052 C.ar    1  UNL1        0.0133
      7 C          16.1196  -26.1884   17.4647 C.ar    1  UNL1        0.0372
      8 N          17.2733  -25.5281   17.6581 N.ar    1  UNL1       -0.3288
      9 C          16.9970  -24.5895   14.1699 C.ar    1  UNL1        0.0175
     10 C          18.1523  -23.8279   13.9950 C.ar    1  UNL1        0.0628
     11 C          18.4447  -23.2722   12.7506 C.ar    1  UNL1        0.0173
     12 C          17.6020  -23.4613   11.6660 C.ar    1  UNL1        0.0015
     13 C          16.4515  -24.2148   11.8289 C.ar    1  UNL1        0.0001
     14 C          16.1656  -24.7646   13.0690 C.ar    1  UNL1        0.0015
     15 C          14.3675  -26.5480   15.3197 C.ar    1  UNL1        0.0013
     16 C          13.1608  -25.8597   15.3559 C.ar    1  UNL1        0.0023
     17 C          12.0149  -26.2915   14.6942 C.ar    1  UNL1        0.0296
     18 C          12.0428  -27.4527   13.9387 C.ar    1  UNL1        0.1401
     19 C          13.2200  -28.1743   13.8817 C.ar    1  UNL1        0.0296
     20 C          14.3325  -27.7202   14.5777 C.ar    1  UNL1        0.0023
     21 F          10.9518  -27.8784   13.2840 F       1  UNL1       -0.2042
     22 C          18.1945  -25.5514   18.8500 C.3     1  UNL1        0.0854
     23 C          17.7748  -24.8952   20.1964 C.3     1  UNL1        0.0245
     24 C          18.9333  -26.8968   19.0281 C.3     1  UNL1        0.0245
     25 C          15.4693  -26.9721   18.6823 C.3     1  UNL1        0.0463
     26 C          14.1873  -27.6545   18.4273 C.3     1  UNL1        0.0355
     27 C          13.1264  -27.5749   19.4989 C.3     1  UNL1        0.1133
     28 O          13.4375  -26.5511   20.4571 O.3     1  UNL1       -0.3844
     29 H          13.5339  -25.7002   20.0014 H       1  UNL1        0.2103
     30 C          11.8551  -27.1971   18.7150 C.3     1  UNL1        0.0588
     31 C          10.8935  -28.3545   18.5908 C.3     1  UNL1        0.1185
     32 O           9.5767  -27.9447   18.9606 O.3     1  UNL1       -0.3840
     33 H           9.2857  -27.2264   18.3772 H       1  UNL1        0.2104
     34 C          10.8897  -28.8352   17.1342 C.3     1  UNL1        0.0710
     35 C           9.5360  -29.3762   16.8267 C.2     1  UNL1        0.0528
     36 O           9.1081  -30.5023   17.4503 O.co2   1  UNL1       -0.5491
     37 O           8.8213  -28.8224   15.9846 O.co2   1  UNL1       -0.5491
     38 C          20.2575  -22.7048   14.6620 C.3     1  UNL1        0.1380
     39 C          20.4603  -21.2031   15.0413 C.ar    1  UNL1        0.0280
     40 C          20.8205  -20.3307   14.0187 C.ar    1  UNL1        0.1380
     41 C          20.9995  -18.9745   14.2693 C.ar    1  UNL1        0.0294
     42 C          20.8157  -18.4680   15.5488 C.ar    1  UNL1        0.0023
     43 C          20.4658  -19.3290   16.5785 C.ar    1  UNL1       -0.0001
     44 C          20.2994  -20.6829   16.3188 C.ar    1  UNL1       -0.0002
     45 F          20.9908  -20.8002   12.7761 F       1  UNL1       -0.2044
@<TRIPOS>UNITY_ATOM_ATTR
36 1
charge -1
@<TRIPOS>BOND
     1     9    10   ar
     2     4     5   ar
     3    10    11   ar
     4    25    26    1
     5    11    12   ar
     6     1    10   ar
     7    12    13   ar
     8    26    27    1
     9    13    14   ar
    10    14     9   ar
    11     1     2   ar
    12    27    30    1
    13    15    16   ar
    14     9     5   ar
    15    16    17   ar
    16    27    28    1
    17    17    18   ar
    18     4     2   ar
    19    18    19   ar
    20    30    31    1
    21    19    20   ar
    22    20    15   ar
    23     6    15    1
    24    18    21    1
    25    31    34    1
    26     8    22    1
    27     5     6   ar
    28    22    23    1
    29    31    32    1
    30    22    24    1
    31     6     7   ar
    32     1    38    1
    33    34    35    1
    34    38    39    1
    35     7     8   ar
    36    39    40   ar
    37    35    36   ar
    38    40    41   ar
    39     8     4   ar
    40    41    42   ar
    41    35    37   ar
    42    42    43   ar
    43     2     3    2
    44    43    44   ar
    45    44    39   ar
    46     7    25    1
    47    40    45    1
    48    28    29    1
    49    32    33    1
#	Name:			BDB50215678
#	Creating user name:	trannguyen
#	Creation time:		Wed Dec  7 14:36:19 2022


#	Modifying user name:	trannguyen
#	Modification time:	Wed Dec  7 14:36:19 2022

@<TRIPOS>MOLECULE
BDB50215678
 45 49 0 0 0
SMALL
GASTEIGER

@<TRIPOS>ATOM
      1 N          14.8126  -25.8540   15.3787 N.ar    1  UNL1       -0.2902
      2 C          15.7512  -25.1374   14.5784 C.ar    1  UNL1        0.2769
      3 O          15.4037  -24.2875   13.7695 O.2     1  UNL1       -0.2654
      4 C          17.1679  -25.3044   14.8220 C.ar    1  UNL1        0.1165
      5 C          17.6709  -26.0339   15.8757 C.ar    1  UNL1        0.0230
      6 C          19.0762  -25.9218   15.8276 C.ar    1  UNL1        0.0133
      7 C          19.3269  -25.1224   14.6646 C.ar    1  UNL1        0.0372
      8 N          18.1504  -24.7985   14.1040 N.ar    1  UNL1       -0.3288
      9 C          16.6575  -26.7230   16.7869 C.ar    1  UNL1        0.0175
     10 C          15.2998  -26.6094   16.4863 C.ar    1  UNL1        0.0628
     11 C          14.3484  -27.2358   17.2894 C.ar    1  UNL1        0.0173
     12 C          14.7249  -27.9801   18.3971 C.ar    1  UNL1        0.0015
     13 C          16.0698  -28.0988   18.7050 C.ar    1  UNL1        0.0001
     14 C          17.0118  -27.4739   17.9025 C.ar    1  UNL1        0.0015
     15 C          20.1262  -26.5669   16.9152 C.ar    1  UNL1        0.0013
     16 C          20.3906  -25.9552   18.1344 C.ar    1  UNL1        0.0023
     17 C          21.2688  -26.4809   19.0777 C.ar    1  UNL1        0.0296
     18 C          21.9198  -27.6789   18.8315 C.ar    1  UNL1        0.1401
     19 C          21.6937  -28.3175   17.6268 C.ar    1  UNL1        0.0296
     20 C          20.8279  -27.7454   16.7045 C.ar    1  UNL1        0.0023
     21 F          22.7609  -28.2073   19.7331 F       1  UNL1       -0.2042
     22 C          17.8785  -24.1303   12.7808 C.3     1  UNL1        0.0854
     23 C          18.2873  -22.6498   12.5344 C.3     1  UNL1        0.0245
     24 C          18.1354  -25.0483   11.5646 C.3     1  UNL1        0.0245
     25 C          20.6651  -24.5848   14.0032 C.3     1  UNL1        0.0463
     26 C          21.3894  -23.5272   14.7296 C.3     1  UNL1        0.0355
     27 C          20.6527  -22.8045   15.8307 C.3     1  UNL1        0.1133
     28 O          21.4218  -22.7929   17.0438 O.3     1  UNL1       -0.3844
     29 H          22.2843  -22.3821   16.8758 H       1  UNL1        0.2103
     30 C          20.5085  -21.3729   15.2812 C.3     1  UNL1        0.0588
     31 C          21.4232  -20.3965   15.9797 C.3     1  UNL1        0.1185
     32 O          22.7064  -20.3873   15.3536 O.3     1  UNL1       -0.3840
     33 H          22.6111  -20.1248   14.4247 H       1  UNL1        0.2104
     34 C          20.8020  -18.9968   15.8948 C.3     1  UNL1        0.0710
     35 C          21.8398  -18.0577   15.3852 C.2     1  UNL1        0.0528
     36 O          22.6031  -17.3627   16.2653 O.co2   1  UNL1       -0.5491
     37 O          21.9817  -17.8874   14.1697 O.co2   1  UNL1       -0.5491
     38 C          13.3067  -25.8298   15.2288 C.3     1  UNL1        0.1358
     39 C          12.4676  -26.8435   14.3877 C.ar    1  UNL1        0.0006
     40 C          11.0847  -26.9541   14.4457 C.ar    1  UNL1       -0.0001
     41 C          10.3984  -27.9038   13.7020 C.ar    1  UNL1        0.0294
     42 C          11.0997  -28.7590   12.8657 C.ar    1  UNL1        0.1401
     43 C          12.4811  -28.6462   12.7723 C.ar    1  UNL1        0.0294
     44 C          13.1571  -27.6951   13.5297 C.ar    1  UNL1       -0.0001
     45 F          10.4442  -29.6877   12.1549 F       1  UNL1       -0.2042
@<TRIPOS>UNITY_ATOM_ATTR
36 1
charge -1
@<TRIPOS>BOND
     1     9    10   ar
     2     4     5   ar
     3    10    11   ar
     4    25    26    1
     5    11    12   ar
     6     1    10   ar
     7    12    13   ar
     8    26    27    1
     9    13    14   ar
    10    14     9   ar
    11     1     2   ar
    12    27    30    1
    13    15    16   ar
    14     9     5   ar
    15    16    17   ar
    16    27    28    1
    17    17    18   ar
    18     4     2   ar
    19    18    19   ar
    20    30    31    1
    21    19    20   ar
    22    20    15   ar
    23     6    15    1
    24    18    21    1
    25    31    34    1
    26     8    22    1
    27     5     6   ar
    28    22    23    1
    29    31    32    1
    30    22    24    1
    31     6     7   ar
    32     1    38    1
    33    34    35    1
    34    38    39    1
    35     7     8   ar
    36    39    40   ar
    37    35    36   ar
    38    40    41   ar
    39     8     4   ar
    40    41    42   ar
    41    35    37   ar
    42    42    43   ar
    43     2     3    2
    44    43    44   ar
    45    44    39   ar
    46     7    25    1
    47    42    45    1
    48    28    29    1
    49    32    33    1
#	Name:			BDB50215703
#	Creating user name:	trannguyen
#	Creation time:		Wed Dec  7 14:36:19 2022


#	Modifying user name:	trannguyen
#	Modification time:	Wed Dec  7 14:36:19 2022

@<TRIPOS>MOLECULE
BDB50215703
 35 36 0 0 0
SMALL
GASTEIGER

@<TRIPOS>ATOM
      1 C          16.7315  -25.4112   15.1263 C.ar    1  UNL1        0.0853
      2 N          15.5372  -25.9796   15.2558 N.ar    1  UNL1       -0.2124
      3 C          15.0892  -26.3999   16.4324 C.ar    1  UNL1        0.2387
      4 N          15.8187  -26.2541   17.5263 N.ar    1  UNL1       -0.2168
      5 C          17.0179  -25.6961   17.4904 C.ar    1  UNL1        0.0629
      6 C          17.5318  -25.2511   16.2657 C.ar    1  UNL1        0.0311
      7 C          18.1205  -25.6254   12.9802 C.ar    1  UNL1        0.0038
      8 C          18.4608  -25.1942   11.7053 C.ar    1  UNL1        0.0297
      9 C          17.8127  -24.0986   11.1540 C.ar    1  UNL1        0.1401
     10 C          16.8261  -23.4449   11.8824 C.ar    1  UNL1        0.0297
     11 C          16.4907  -23.8846   13.1591 C.ar    1  UNL1        0.0038
     12 C          17.1367  -24.9790   13.7244 C.ar    1  UNL1        0.0179
     13 F          18.1404  -23.6754    9.9238 F       1  UNL1       -0.2042
     14 C          17.7361  -25.5438   18.8178 C.3     1  UNL1        0.0404
     15 C          18.4318  -26.8704   19.1699 C.3     1  UNL1        0.0063
     16 C          16.7179  -25.2097   19.9321 C.3     1  UNL1        0.0063
     17 N          13.8278  -26.9882   16.5497 N.pl3   1  UNL1       -0.1605
     18 C          13.5506  -27.8436   17.6673 C.3     1  UNL1        0.1420
     19 S          12.6041  -26.6696   15.4119 S.O2    1  UNL1        0.0611
     20 C          13.0027  -27.4719   13.8394 C.3     1  UNL1        0.1999
     21 O          11.2858  -27.2084   15.9353 O.2     1  UNL1       -0.1541
     22 O          12.4932  -25.1718   15.2018 O.2     1  UNL1       -0.1541
     23 C          18.8780  -24.6081   16.1513 C.2     1  UNL1        0.0005
     24 C          19.1088  -23.3071   16.2638 C.2     1  UNL1        0.0027
     25 C          20.4778  -22.7759   16.0782 C.3     1  UNL1        0.1349
     26 O          21.1536  -22.7346   17.3347 O.3     1  UNL1       -0.3800
     27 H          20.6601  -22.1687   17.9488 H       1  UNL1        0.2108
     28 C          20.3638  -21.3698   15.4939 C.3     1  UNL1        0.0634
     29 C          21.4199  -20.4728   16.1249 C.3     1  UNL1        0.1188
     30 O          22.6271  -20.5485   15.3639 O.3     1  UNL1       -0.3840
     31 H          22.4541  -20.2615   14.4536 H       1  UNL1        0.2104
     32 C          20.8998  -19.0304   16.1360 C.3     1  UNL1        0.0710
     33 C          21.9650  -18.1196   15.6187 C.2     1  UNL1        0.0528
     34 O          22.0488  -17.8620   14.2885 O.co2   1  UNL1       -0.5491
     35 O          22.7811  -17.6190   16.3998 O.co2   1  UNL1       -0.5491
@<TRIPOS>UNITY_ATOM_ATTR
34 1
charge -1
@<TRIPOS>BOND
     1    19    20    1
     2    19    21    2
     3     2     3   ar
     4    19    22    2
     5    10    11   ar
     6     9    13    1
     7     3     4   ar
     8     5    14    1
     9     8     9   ar
    10    14    15    1
    11     4     5   ar
    12    14    16    1
    13    11    12   ar
    14     6    23    1
    15     5     6   ar
    16    23    24    2
    17     6     1   ar
    18    24    25    1
    19    12     1    1
    20    25    28    1
    21    12     7   ar
    22    28    29    1
    23     3    17    1
    24    29    32    1
    25     7     8   ar
    26    32    33    1
    27    17    19    1
    28    33    34   ar
    29     9    10   ar
    30    33    35   ar
    31    17    18    1
    32    29    30    1
    33     1     2   ar
    34    25    26    1
    35    30    31    1
    36    26    27    1
#	Name:			BDB50279858
#	Creating user name:	trannguyen
#	Creation time:		Wed Dec  7 14:36:19 2022


#	Modifying user name:	trannguyen
#	Modification time:	Wed Dec  7 14:36:19 2022

@<TRIPOS>MOLECULE
BDB50279858
 29 30 0 0 0
SMALL
GASTEIGER

@<TRIPOS>ATOM
      1 C          18.4162  -24.0343   13.4207 C.ar    1  UNL1        0.0225
      2 C          18.1017  -24.2719   14.7532 C.ar    1  UNL1        0.1367
      3 C          17.5070  -24.3627   12.4224 C.ar    1  UNL1        0.0574
      4 C          16.8774  -24.8383   15.0875 C.ar    1  UNL1        0.0480
      5 C          16.2830  -24.9289   12.7564 C.ar    1  UNL1        0.0227
      6 C          15.9683  -25.1667   14.0889 C.ar    1  UNL1        0.0615
      7 CL         17.8956  -24.0690   10.7760 Cl      1  UNL1       -0.0824
      8 CL         14.4553  -25.8664   14.5000 Cl      1  UNL1       -0.0821
      9 C          19.7398  -23.4222   13.0592 C.3     1  UNL1        0.0328
     10 C          19.6474  -21.8816   13.0879 C.3     1  UNL1        0.0341
     11 C          21.0670  -21.2884   12.9741 C.3     1  UNL1        0.1133
     12 O          21.7613  -21.9453   11.9119 O.3     1  UNL1       -0.3844
     13 H          21.2811  -21.8110   11.0799 H       1  UNL1        0.2103
     14 C          20.9787  -19.7702   12.6889 C.3     1  UNL1        0.0588
     15 C          21.9863  -18.9893   13.5696 C.3     1  UNL1        0.1185
     16 O          21.8031  -17.5826   13.3899 O.3     1  UNL1       -0.3840
     17 H          20.9003  -17.3386   13.6476 H       1  UNL1        0.2104
     18 C          21.7500  -19.3474   15.0517 C.3     1  UNL1        0.0710
     19 C          21.6920  -18.0954   15.8859 C.2     1  UNL1        0.0528
     20 O          20.6123  -17.5171   16.0551 O.co2   1  UNL1       -0.5491
     21 O          22.8219  -17.5989   16.4537 O.co2   1  UNL1       -0.5491
     22 O          19.0177  -23.9410   15.7581 O.3     1  UNL1       -0.4709
     23 C          19.7235  -25.1085   16.2034 C.3     1  UNL1        0.2320
     24 C          19.5733  -25.2619   17.6915 C.ar    1  UNL1        0.0212
     25 C          20.1223  -26.3628   18.3362 C.ar    1  UNL1       -0.0007
     26 C          18.8839  -24.3000   18.4215 C.ar    1  UNL1       -0.0007
     27 C          18.7443  -24.4404   19.7966 C.ar    1  UNL1       -0.0002
     28 C          19.9825  -26.5033   19.7126 C.ar    1  UNL1       -0.0002
     29 C          19.2937  -25.5425   20.4422 C.ar    1  UNL1       -0.0000
@<TRIPOS>UNITY_ATOM_ATTR
21 1
charge -1
@<TRIPOS>BOND
     1     2     1   ar
     2     3     1   ar
     3     4     2   ar
     4     5     3   ar
     5    18    15    1
     6    19    18    1
     7     9     1    1
     8     6     5   ar
     9    22     2    1
    10    20    19   ar
    11    15    14    1
    12    14    11    1
    13     7     3    1
    14    23    22    1
    15    10     9    1
    16     8     6    1
    17    21    19   ar
    18    11    10    1
    19    24    23    1
    20    15    16    1
    21    11    12    1
    22    25    24   ar
    23    26    24   ar
    24    27    26   ar
    25    28    25   ar
    26    29    27   ar
    27     6     4   ar
    28    29    28   ar
    29    16    17    1
    30    12    13    1
#	Name:			ZINC00692711
#	Creating user name:	trannguyen
#	Creation time:		Wed Dec  7 14:36:19 2022


#	Modifying user name:	trannguyen
#	Modification time:	Wed Dec  7 14:36:19 2022

@<TRIPOS>MOLECULE
ZINC00692711
 45 48 0 0 0
SMALL
GASTEIGER

@<TRIPOS>ATOM
      1 C          19.0606  -22.7587   17.6369 C.3     1  UNL1        0.0528
      2 C          21.6537  -22.8459   14.2368 C.ar    1  UNL1        0.0845
      3 C          20.7131  -23.8485   14.4217 C.ar    1  UNL1        0.0174
      4 C          19.8768  -23.8168   15.5214 C.ar    1  UNL1       -0.0025
      5 C          19.9751  -22.7875   16.4396 C.ar    1  UNL1       -0.0147
      6 C          20.9104  -21.7850   16.2622 C.ar    1  UNL1        0.0340
      7 C          21.7555  -21.8119   15.1647 C.ar    1  UNL1        0.1467
      8 O          22.6792  -20.8291   14.9914 O.3     1  UNL1       -0.5043
      9 H          23.2502  -20.8484   14.2487 H       1  UNL1        0.2922
     10 C          23.6313  -23.6129   13.1555 C.2     1  UNL1        0.2707
     11 O          23.9557  -24.1803   14.1773 O.2     1  UNL1       -0.2707
     12 N          22.5032  -22.8761   13.1228 N.am    1  UNL1       -0.2785
     13 H          22.2761  -22.3591   12.3163 H       1  UNL1        0.1551
     14 C          24.4897  -23.7316   11.9225 C.3     1  UNL1        0.2897
     15 O          25.2701  -24.9264   11.9987 O.3     1  UNL1       -0.4656
     16 C          23.6246  -29.2635    8.8040 C.3     1  UNL1        0.0307
     17 C          24.0647  -28.1029    9.6586 C.ar    1  UNL1       -0.0256
     18 C          24.9451  -27.1656    9.1498 C.ar    1  UNL1       -0.0015
     19 C          25.3543  -26.1042    9.9331 C.ar    1  UNL1        0.0366
     20 C          24.8730  -25.9727   11.2278 C.ar    1  UNL1        0.1389
     21 C          23.9899  -26.9142   11.7358 C.ar    1  UNL1        0.0324
     22 C          23.5877  -27.9771   10.9501 C.ar    1  UNL1       -0.0228
     23 C          22.6279  -28.9999   11.5012 C.3     1  UNL1        0.0308
     24 C          19.2165  -24.0376   18.4189 C.ar    1  UNL1       -0.0147
     25 C          18.1990  -24.9739   18.4192 C.ar    1  UNL1       -0.0025
     26 C          18.3384  -26.1506   19.1306 C.ar    1  UNL1        0.0174
     27 C          19.4968  -26.3894   19.8554 C.ar    1  UNL1        0.0845
     28 C          20.5192  -25.4433   19.8589 C.ar    1  UNL1        0.1467
     29 C          20.3740  -24.2687   19.1385 C.ar    1  UNL1        0.0340
     30 O          21.6572  -25.6721   20.5672 O.3     1  UNL1       -0.5043
     31 H          21.7542  -26.4669   21.0540 H       1  UNL1        0.2922
     32 N          19.6383  -27.5793   20.5818 N.am    1  UNL1       -0.2785
     33 C          20.1171  -28.6847   19.9776 C.2     1  UNL1        0.2707
     34 O          20.3301  -28.6792   18.7834 O.2     1  UNL1       -0.2707
     35 H          19.3879  -27.6077   21.5335 H       1  UNL1        0.1551
     36 C          20.3880  -29.9277   20.7855 C.3     1  UNL1        0.2897
     37 O          21.7792  -29.9946   21.1048 O.3     1  UNL1       -0.4656
     38 C          22.5304  -30.8859   20.4062 C.ar    1  UNL1        0.1389
     39 C          23.5798  -30.4409   19.6150 C.ar    1  UNL1        0.0366
     40 C          24.3454  -31.3493   18.9104 C.ar    1  UNL1       -0.0015
     41 C          24.0594  -32.7003   18.9837 C.ar    1  UNL1       -0.0256
     42 C          23.0108  -33.1457   19.7668 C.ar    1  UNL1       -0.0228
     43 C          22.2458  -32.2416   20.4783 C.ar    1  UNL1        0.0324
     44 C          22.7022  -34.6187   19.8448 C.3     1  UNL1        0.0308
     45 C          24.8924  -33.6887   18.2090 C.3     1  UNL1        0.0307
@<TRIPOS>BOND
     1    16    17    1
     2    17    22   ar
     3    17    18   ar
     4    18    19   ar
     5    19    20   ar
     6    20    21   ar
     7    20    15    1
     8    21    22   ar
     9    22    23    1
    10    15    14    1
    11    14    10    1
    12    10    11    2
    13    10    12   am
    14    12     2    1
    15     2     7   ar
    16     2     3   ar
    17     3     4   ar
    18     4     5   ar
    19     5     6   ar
    20     5     1    1
    21     6     7   ar
    22     7     8    1
    23     1    24    1
    24    24    29   ar
    25    24    25   ar
    26    25    26   ar
    27    26    27   ar
    28    27    28   ar
    29    27    32    1
    30    28    29   ar
    31    28    30    1
    32    32    33   am
    33    33    34    2
    34    33    36    1
    35    36    37    1
    36    37    38    1
    37    38    43   ar
    38    38    39   ar
    39    39    40   ar
    40    40    41   ar
    41    41    42   ar
    42    41    45    1
    43    42    43   ar
    44    42    44    1
    45    12    13    1
    46     8     9    1
    47    30    31    1
    48    32    35    1
#	Name:			ZINC00695539
#	Creating user name:	trannguyen
#	Creation time:		Wed Dec  7 14:36:19 2022


#	Modifying user name:	trannguyen
#	Modification time:	Wed Dec  7 14:36:19 2022

@<TRIPOS>MOLECULE
ZINC00695539
 40 43 0 0 0
SMALL
GASTEIGER

@<TRIPOS>ATOM
      1 C          20.7948  -25.8703   19.2403 C.ar    1  UNL1        0.1936
      2 N          22.0423  -25.4642   19.2919 N.ar    1  UNL1       -0.1224
      3 N          22.1038  -24.2084   19.0255 N.ar    1  UNL1       -0.1311
      4 C          20.9108  -23.7431   18.7853 C.ar    1  UNL1        0.1639
      5 N          20.0344  -24.7855   18.9103 N.ar    1  UNL1       -0.2883
      6 S          20.2127  -27.5065   19.5377 S.3     1  UNL1       -0.0672
      7 C          20.4162  -29.7673   18.0175 C.3     1  UNL1        0.0219
      8 C          21.0521  -28.3873   18.1976 C.3     1  UNL1        0.1325
      9 C          20.9181  -27.6016   16.9187 C.2     1  UNL1        0.2512
     10 O          21.9052  -27.1453   16.3808 O.2     1  UNL1       -0.2725
     11 N          19.7017  -27.4055   16.3725 N.am    1  UNL1       -0.2051
     12 H          18.9006  -27.7757   16.8090 H       1  UNL1        0.1773
     13 N          19.5772  -26.6750   15.1835 N.2     1  UNL1       -0.1775
     14 C          18.6669  -25.7551   15.0792 C.2     1  UNL1        0.1206
     15 C          18.5359  -24.9870   13.8291 C.ar    1  UNL1        0.0546
     16 C          18.2081  -23.6293   13.8711 C.ar    1  UNL1        0.0077
     17 C          18.0871  -22.9145   12.6997 C.ar    1  UNL1        0.0369
     18 C          18.2905  -23.5390   11.4747 C.ar    1  UNL1        0.1367
     19 C          18.6163  -24.8865   11.4223 C.ar    1  UNL1        0.0732
     20 C          18.7455  -25.6140   12.5925 C.ar    1  UNL1        0.1382
     21 O          19.0694  -26.9319   12.5430 O.3     1  UNL1       -0.5054
     22 O          18.1702  -22.8270   10.3241 O.3     1  UNL1       -0.5054
     23 H          19.1565  -27.4231   13.3362 H       1  UNL1        0.2922
     24 H          17.9502  -21.9168   10.3573 H       1  UNL1        0.2922
     25 C          18.5808  -24.7451   18.7329 C.3     1  UNL1        0.1357
     26 C          17.9273  -24.3449   20.0306 C.2     1  UNL1       -0.0017
     27 C          16.7411  -24.8087   20.3369 C.2     1  UNL1       -0.0029
     28 C          20.5613  -22.3197   18.4343 C.3     1  UNL1        0.1542
     29 N          20.4223  -22.1952   16.9812 N.pl3   1  UNL1       -0.3265
     30 H          20.2609  -22.9960   16.4317 H       1  UNL1        0.1472
     31 C          20.5184  -20.9435   16.3770 C.ar    1  UNL1        0.0449
     32 C          20.2042  -19.8030   17.0854 C.ar    1  UNL1        0.0143
     33 C          20.3006  -18.5480   16.4923 C.ar    1  UNL1        0.0013
     34 C          20.6980  -18.4111   15.1970 C.ar    1  UNL1        0.0001
     35 C          21.0226  -19.5486   14.4386 C.ar    1  UNL1        0.0012
     36 C          20.9326  -20.8317   15.0324 C.ar    1  UNL1        0.0131
     37 C          21.2563  -21.9670   14.2732 C.ar    1  UNL1        0.0012
     38 C          21.6519  -21.8217   12.9785 C.ar    1  UNL1        0.0000
     39 C          21.7409  -20.5602   12.3934 C.ar    1  UNL1        0.0000
     40 C          21.4350  -19.4375   13.0993 C.ar    1  UNL1        0.0000
@<TRIPOS>BOND
     1     7     8    1
     2     8     9    1
     3     8     6    1
     4     9    10    2
     5     9    11   am
     6    11    13    1
     7    13    14    2
     8    14    15    1
     9    15    20   ar
    10    15    16   ar
    11    16    17   ar
    12    17    18   ar
    13    18    19   ar
    14    18    22    1
    15    19    20   ar
    16    20    21    1
    17     6     1    1
    18     1     5   ar
    19     1     2   ar
    20     2     3   ar
    21     3     4   ar
    22     4     5   ar
    23     4    28    1
    24     5    25    1
    25    25    26    1
    26    26    27    2
    27    28    29    1
    28    29    31    1
    29    31    36   ar
    30    31    32   ar
    31    32    33   ar
    32    33    34   ar
    33    34    35   ar
    34    35    40   ar
    35    35    36   ar
    36    36    37   ar
    37    37    38   ar
    38    38    39   ar
    39    39    40   ar
    40    11    12    1
    41    21    23    1
    42    22    24    1
    43    29    30    1
#	Name:			ZINC00735544
#	Creating user name:	trannguyen
#	Creation time:		Wed Dec  7 14:36:19 2022


#	Modifying user name:	trannguyen
#	Modification time:	Wed Dec  7 14:36:19 2022

@<TRIPOS>MOLECULE
ZINC00735544
 43 47 0 0 0
SMALL
GASTEIGER

@<TRIPOS>ATOM
      1 C          14.5939  -26.5063   14.4429 C.ar    1  UNL1        0.0505
      2 C          15.2544  -25.9292   13.3625 C.ar    1  UNL1        0.0159
      3 C          16.4552  -25.2768   13.5476 C.ar    1  UNL1        0.0159
      4 C          17.0112  -25.1856   14.8176 C.ar    1  UNL1        0.0523
      5 C          16.3533  -25.7703   15.9101 C.ar    1  UNL1        0.0679
      6 C          15.1373  -26.4295   15.7126 C.ar    1  UNL1        0.0204
      7 N          18.2190  -24.5222   15.0041 N.pl3   1  UNL1       -0.3074
      8 C          19.3464  -25.3416   14.5418 C.3     1  UNL1        0.0908
      9 C          20.6630  -24.6456   14.8942 C.3     1  UNL1        0.0218
     10 C          20.7013  -23.2683   14.2265 C.3     1  UNL1        0.0078
     11 C          19.4903  -22.4524   14.6876 C.3     1  UNL1        0.0218
     12 C          18.2078  -23.2120   14.3412 C.3     1  UNL1        0.0908
     13 C          21.9882  -22.5426   14.6244 C.3     1  UNL1        0.0265
     14 C          21.8616  -21.0778   14.2933 C.ar    1  UNL1       -0.0222
     15 C          21.9402  -20.1327   15.2990 C.ar    1  UNL1       -0.0043
     16 C          21.8285  -18.7889   14.9948 C.ar    1  UNL1       -0.0003
     17 C          21.6286  -18.3907   13.6862 C.ar    1  UNL1       -0.0000
     18 C          21.5452  -19.3362   12.6811 C.ar    1  UNL1       -0.0003
     19 C          21.6612  -20.6798   12.9848 C.ar    1  UNL1       -0.0043
     20 C          12.2157  -26.5520   14.5552 C.2     1  UNL1        0.2305
     21 O          12.2231  -25.3982   14.9288 O.2     1  UNL1       -0.2744
     22 N          13.3738  -27.1671   14.2438 N.am    1  UNL1       -0.2836
     23 H          13.3628  -28.0804   13.8765 H       1  UNL1        0.1549
     24 C          10.9114  -27.2980   14.4391 C.3     1  UNL1        0.1116
     25 C          10.7437  -30.3482   17.4274 C.ar    1  UNL1        0.1387
     26 C          10.5154  -30.6662   16.0964 C.ar    1  UNL1        0.0366
     27 C          10.5703  -29.6783   15.1323 C.ar    1  UNL1       -0.0007
     28 C          10.8523  -28.3736   15.4929 C.ar    1  UNL1       -0.0129
     29 C          11.0857  -28.0552   16.8180 C.ar    1  UNL1       -0.0007
     30 C          11.0264  -29.0384   17.7866 C.ar    1  UNL1        0.0366
     31 C          10.1894  -30.9410   19.6620 C.3     1  UNL1        0.2525
     32 O          10.6899  -31.3181   18.3778 O.3     1  UNL1       -0.4714
     33 C          16.9390  -25.6844   17.2605 C.2     1  UNL1        0.2473
     34 O          17.4493  -26.6658   17.7655 O.2     1  UNL1       -0.2701
     35 N          16.9089  -24.5179   17.9350 N.am    1  UNL1       -0.2968
     36 H          16.4958  -23.7233   17.5261 H       1  UNL1        0.1501
     37 C          17.4908  -24.4324   19.2767 C.3     1  UNL1        0.1181
     38 C          18.9890  -24.3117   19.1677 C.ar    1  UNL1        0.0166
     39 C          19.5581  -23.3247   18.3772 C.ar    1  UNL1        0.0005
     40 C          20.9407  -23.2548   18.3025 C.ar    1  UNL1        0.0204
     41 C          21.7006  -24.1574   19.0226 C.ar    1  UNL1        0.0989
     42 N          21.1250  -25.0797   19.7686 N.ar    1  UNL1       -0.2426
     43 C          19.8130  -25.1792   19.8590 C.ar    1  UNL1        0.0962
@<TRIPOS>BOND
     1    31    32    1
     2    32    25    1
     3    25    30   ar
     4    25    26   ar
     5    26    27   ar
     6    27    28   ar
     7    28    29   ar
     8    28    24    1
     9    29    30   ar
    10    24    20    1
    11    20    21    2
    12    20    22   am
    13    22     1    1
    14     1     6   ar
    15     1     2   ar
    16     2     3   ar
    17     3     4   ar
    18     4     5   ar
    19     4     7    1
    20     5     6   ar
    21     5    33    1
    22    33    34    2
    23    33    35   am
    24    35    37    1
    25    37    38    1
    26    38    43   ar
    27    38    39   ar
    28    39    40   ar
    29    40    41   ar
    30    41    42   ar
    31    42    43   ar
    32     7    12    1
    33     7     8    1
    34     8     9    1
    35     9    10    1
    36    10    11    1
    37    10    13    1
    38    11    12    1
    39    13    14    1
    40    14    19   ar
    41    14    15   ar
    42    15    16   ar
    43    16    17   ar
    44    17    18   ar
    45    18    19   ar
    46    22    23    1
    47    35    36    1
#	Name:			ZINC00825240
#	Creating user name:	trannguyen
#	Creation time:		Wed Dec  7 14:36:19 2022


#	Modifying user name:	trannguyen
#	Modification time:	Wed Dec  7 14:36:19 2022

@<TRIPOS>MOLECULE
ZINC00825240
 42 45 0 0 0
SMALL
GASTEIGER

@<TRIPOS>ATOM
      1 C          16.3460  -23.9525   11.6159 C.3     1  UNL1        0.0355
      2 C          17.2054  -24.1785   12.8330 C.ar    1  UNL1        0.0246
      3 C          16.6108  -24.4159   14.0526 C.ar    1  UNL1        0.0436
      4 C          17.4158  -24.6217   15.1936 C.ar    1  UNL1        0.0159
      5 C          16.8400  -24.8656   16.4514 C.ar    1  UNL1        0.0412
      6 C          17.6429  -25.0600   17.5369 C.ar    1  UNL1        0.1724
      7 C          19.0393  -25.0200   17.4139 C.ar    1  UNL1        0.1724
      8 C          19.6276  -24.7847   16.2056 C.ar    1  UNL1        0.0399
      9 C          18.8264  -24.5806   15.0683 C.ar    1  UNL1        0.0038
     10 C          19.4035  -24.3361   13.8106 C.ar    1  UNL1        0.0205
     11 C          18.5960  -24.1392   12.7136 C.ar    1  UNL1        0.1272
     12 O          19.1590  -23.9031   11.4994 O.3     1  UNL1       -0.5061
     13 H          18.6147  -23.7683   10.7488 H       1  UNL1        0.2922
     14 O          19.8160  -25.2180   18.5119 O.3     1  UNL1       -0.4684
     15 C          20.9849  -24.4052   18.6346 C.3     1  UNL1        0.2526
     16 O          17.0822  -25.2959   18.7535 O.3     1  UNL1       -0.4684
     17 C          16.8326  -24.1602   19.5839 C.3     1  UNL1        0.2526
     18 N          15.2215  -24.4528   14.1593 N.pl3   1  UNL1       -0.3325
     19 H          14.6396  -23.6588   14.1419 H       1  UNL1        0.1468
     20 C          14.7410  -25.8337   14.3013 C.3     1  UNL1        0.0918
     21 C          13.4920  -25.8506   15.1850 C.3     1  UNL1        0.0476
     22 C          12.6101  -27.0057   14.7860 C.ar    1  UNL1       -0.0173
     23 C          12.9253  -27.7615   13.6721 C.ar    1  UNL1       -0.0009
     24 C          12.1226  -28.8256   13.3053 C.ar    1  UNL1        0.0397
     25 C          10.9930  -29.1296   14.0480 C.ar    1  UNL1        0.1724
     26 C          10.6727  -28.3654   15.1660 C.ar    1  UNL1        0.1721
     27 C          11.4847  -27.3038   15.5314 C.ar    1  UNL1        0.0358
     28 O           9.5654  -28.6602   15.8984 O.3     1  UNL1       -0.4684
     29 C           9.7622  -29.4104   17.0986 C.3     1  UNL1        0.2526
     30 O          10.1996  -30.1729   13.6856 O.3     1  UNL1       -0.4684
     31 C          10.7938  -31.4724   13.6912 C.3     1  UNL1        0.2526
     32 C          20.9025  -24.2893   13.6635 C.3     1  UNL1        0.1146
     33 C          21.4013  -22.9169   14.0359 C.2     1  UNL1        0.2307
     34 O          22.4688  -22.7915   14.5977 O.2     1  UNL1       -0.2744
     35 N          20.6610  -21.8289   13.7448 N.am    1  UNL1       -0.2836
     36 H          19.8278  -21.9241   13.2291 H       1  UNL1        0.1549
     37 C          21.0766  -20.5641   14.1755 C.ar    1  UNL1        0.0503
     38 C          21.4473  -19.6000   13.2473 C.ar    1  UNL1        0.0147
     39 C          21.8520  -18.3509   13.6756 C.ar    1  UNL1        0.0013
     40 C          21.8988  -18.0634   15.0273 C.ar    1  UNL1        0.0001
     41 C          21.5357  -19.0230   15.9543 C.ar    1  UNL1        0.0013
     42 C          21.1247  -20.2722   15.5324 C.ar    1  UNL1        0.0147
@<TRIPOS>BOND
     1     1     2    1
     2     2    11   ar
     3     2     3   ar
     4     3     4   ar
     5     3    18    1
     6     4     9   ar
     7     4     5   ar
     8     5     6   ar
     9     6     7   ar
    10     6    16    1
    11     7     8   ar
    12     7    14    1
    13     8     9   ar
    14     9    10   ar
    15    10    11   ar
    16    10    32    1
    17    11    12    1
    18    32    33    1
    19    33    34    2
    20    33    35   am
    21    35    37    1
    22    37    42   ar
    23    37    38   ar
    24    38    39   ar
    25    39    40   ar
    26    40    41   ar
    27    41    42   ar
    28    14    15    1
    29    16    17    1
    30    18    20    1
    31    20    21    1
    32    21    22    1
    33    22    27   ar
    34    22    23   ar
    35    23    24   ar
    36    24    25   ar
    37    25    26   ar
    38    25    30    1
    39    26    27   ar
    40    26    28    1
    41    28    29    1
    42    30    31    1
    43    12    13    1
    44    35    36    1
    45    18    19    1
#	Name:			ZINC00846682
#	Creating user name:	trannguyen
#	Creation time:		Wed Dec  7 14:36:20 2022


#	Modifying user name:	trannguyen
#	Modification time:	Wed Dec  7 14:36:20 2022

@<TRIPOS>MOLECULE
ZINC00846682
 43 46 0 0 0
SMALL
GASTEIGER

@<TRIPOS>ATOM
      1 C          19.9568  -26.0700   16.2443 C.2     1  UNL1        0.2474
      2 O          18.7867  -25.9218   15.9490 O.2     1  UNL1       -0.2701
      3 N          20.8720  -26.2933   15.2804 N.am    1  UNL1       -0.2945
      4 H          21.8194  -26.4132   15.5195 H       1  UNL1        0.1501
      5 C          20.9994  -24.8524   18.1564 C.ar    1  UNL1        0.0549
      6 C          21.3836  -24.8014   19.4901 C.ar    1  UNL1        0.0148
      7 C          21.1553  -25.8824   20.3172 C.ar    1  UNL1        0.0013
      8 C          20.5429  -27.0243   19.8262 C.ar    1  UNL1        0.0002
      9 C          20.1553  -27.0931   18.5057 C.ar    1  UNL1        0.0058
     10 C          20.3748  -26.0052   17.6574 C.ar    1  UNL1        0.0668
     11 C          20.4045  -22.6968   17.3630 C.2     1  UNL1        0.2495
     12 O          19.4062  -22.7268   18.0563 O.2     1  UNL1       -0.2698
     13 N          21.2278  -23.7630   17.3206 N.am    1  UNL1       -0.2803
     14 H          21.9907  -23.7715   16.6984 H       1  UNL1        0.1552
     15 C          21.3078  -19.2321   15.0804 C.ar    1  UNL1        0.1387
     16 C          20.6708  -19.1058   16.3093 C.ar    1  UNL1        0.0370
     17 C          20.3745  -20.2269   17.0518 C.ar    1  UNL1        0.0076
     18 C          20.7147  -21.4931   16.5678 C.ar    1  UNL1        0.0539
     19 C          21.3546  -21.6158   15.3315 C.ar    1  UNL1        0.0076
     20 C          21.6478  -20.4896   14.5955 C.ar    1  UNL1        0.0370
     21 C          21.7569  -18.2986   12.9422 C.3     1  UNL1        0.2525
     22 O          21.5981  -18.1246   14.3516 O.3     1  UNL1       -0.4714
     23 C          20.4569  -26.3576   13.8770 C.3     1  UNL1        0.1535
     24 C          21.3496  -27.3168   13.1325 C.2     1  UNL1        0.2443
     25 O          21.6024  -28.4035   13.6082 O.2     1  UNL1       -0.2730
     26 N          21.8669  -26.9671   11.9381 N.am    1  UNL1       -0.2822
     27 H          21.5979  -26.1203   11.5139 H       1  UNL1        0.1549
     28 C          22.7867  -27.8078   11.3007 C.ar    1  UNL1        0.0566
     29 C          22.3489  -28.9584   10.6585 C.ar    1  UNL1        0.0152
     30 C          23.2584  -29.7839   10.0271 C.ar    1  UNL1        0.0013
     31 C          24.6054  -29.4707   10.0416 C.ar    1  UNL1        0.0006
     32 C          25.0458  -28.3284   10.6838 C.ar    1  UNL1        0.0079
     33 C          24.1404  -27.4957   11.3139 C.ar    1  UNL1        0.0480
     34 BR         24.7435  -25.9341   12.1934 Br      1  UNL1       -0.0477
     35 C          20.5662  -24.9669   13.2485 C.3     1  UNL1        0.0553
     36 C          19.1922  -24.4778   12.8690 C.ar    1  UNL1       -0.0198
     37 C          18.4635  -25.1477   11.9036 C.ar    1  UNL1       -0.0011
     38 C          17.2015  -24.7046   11.5579 C.ar    1  UNL1        0.0363
     39 C          16.6701  -23.5800   12.1723 C.ar    1  UNL1        0.1337
     40 C          17.4056  -22.9064   13.1366 C.ar    1  UNL1        0.0363
     41 C          18.6649  -23.3567   13.4828 C.ar    1  UNL1       -0.0011
     42 O          15.4309  -23.1391   11.8304 O.3     1  UNL1       -0.5055
     43 H          14.9347  -23.5946   11.1790 H       1  UNL1        0.2922
@<TRIPOS>BOND
     1    21    22    1
     2    22    15    1
     3    15    20   ar
     4    15    16   ar
     5    16    17   ar
     6    17    18   ar
     7    18    19   ar
     8    18    11    1
     9    19    20   ar
    10    11    12    2
    11    11    13   am
    12    13     5    1
    13     5    10   ar
    14     5     6   ar
    15     6     7   ar
    16     7     8   ar
    17     8     9   ar
    18     9    10   ar
    19    10     1    1
    20     1     2    2
    21     1     3   am
    22     3    23    1
    23    23    35    1
    24    23    24    1
    25    35    36    1
    26    36    41   ar
    27    36    37   ar
    28    37    38   ar
    29    38    39   ar
    30    39    40   ar
    31    39    42    1
    32    40    41   ar
    33    24    25    2
    34    24    26   am
    35    26    28    1
    36    28    33   ar
    37    28    29   ar
    38    29    30   ar
    39    30    31   ar
    40    31    32   ar
    41    32    33   ar
    42    33    34    1
    43    13    14    1
    44     3     4    1
    45    42    43    1
    46    26    27    1
#	Name:			ZINC00920383
#	Creating user name:	trannguyen
#	Creation time:		Wed Dec  7 14:36:19 2022


#	Modifying user name:	trannguyen
#	Modification time:	Wed Dec  7 14:36:19 2022

@<TRIPOS>MOLECULE
ZINC00920383
 45 49 0 0 0
SMALL
GASTEIGER

@<TRIPOS>ATOM
      1 N          14.9381  -26.2028   15.9511 N.am    1  UNL1       -0.2766
      2 C          16.1308  -26.6136   15.4768 C.2     1  UNL1        0.2691
      3 O          16.4178  -27.7950   15.4941 O.2     1  UNL1       -0.2681
      4 H          14.7317  -25.2414   15.9980 H       1  UNL1        0.1553
      5 C          17.0892  -25.6286   14.9356 C.ar    1  UNL1        0.1571
      6 C          17.7731  -24.6411   15.6805 C.ar    1  UNL1        0.0592
      7 C          18.5503  -23.9502   14.8235 C.ar    1  UNL1        0.1276
      8 N          18.3720  -24.4709   13.5730 N.ar    1  UNL1       -0.2313
      9 N          17.4567  -25.5180   13.6710 N.ar    1  UNL1       -0.1633
     10 C          19.0544  -23.9673   12.3777 C.3     1  UNL1        0.2029
     11 C          19.5644  -22.5491   12.6581 C.3     1  UNL1        0.0605
     12 C          20.3401  -22.5253   13.9797 C.3     1  UNL1        0.1305
     13 N          19.4149  -22.8808   15.0737 N.pl3   1  UNL1       -0.3137
     14 H          19.4074  -22.3936   15.9292 H       1  UNL1        0.1485
     15 C          20.8959  -21.1444   14.2156 C.ar    1  UNL1        0.1407
     16 C          20.7913  -20.1001   13.3745 C.ar    1  UNL1        0.0379
     17 C          21.4506  -19.0111   13.9895 C.ar    1  UNL1        0.0435
     18 C          21.9185  -19.4551   15.1699 C.ar    1  UNL1        0.1792
     19 O          21.5746  -20.7464   15.3040 O.2     1  UNL1       -0.4530
     20 C          18.0748  -23.9365   11.2030 C.3     1  UNL1        0.4179
     21 F          18.0878  -25.1751   10.5524 F       1  UNL1       -0.1680
     22 F          16.7855  -23.6728   11.6777 F       1  UNL1       -0.1680
     23 F          18.4551  -22.9338   10.3046 F       1  UNL1       -0.1680
     24 C          12.1516  -28.6091   15.8928 C.ar    1  UNL1        0.1533
     25 C          13.0866  -27.6782   15.4714 C.ar    1  UNL1        0.0559
     26 C          13.9915  -27.1446   16.3778 C.ar    1  UNL1        0.0881
     27 C          13.9630  -27.5491   17.7105 C.ar    1  UNL1        0.1533
     28 C          13.0250  -28.4757   18.1329 C.ar    1  UNL1        0.0559
     29 C          12.1197  -29.0095   17.2263 C.ar    1  UNL1        0.0881
     30 N          11.1732  -29.9512   17.6528 N.am    1  UNL1       -0.2779
     31 C           9.9983  -29.5394   18.1692 C.2     1  UNL1        0.2496
     32 O           9.7920  -28.3537   18.3410 O.2     1  UNL1       -0.2698
     33 H          11.3666  -30.9134   17.5751 H       1  UNL1        0.1553
     34 C           8.9606  -30.5296   18.5269 C.ar    1  UNL1        0.0537
     35 C           9.1939  -31.8917   18.3302 C.ar    1  UNL1        0.0045
     36 C           8.2231  -32.8108   18.6705 C.ar    1  UNL1        0.0001
     37 C           7.0162  -32.3844   19.1960 C.ar    1  UNL1        0.0000
     38 C           6.7766  -31.0353   19.3887 C.ar    1  UNL1        0.0001
     39 C           7.7409  -30.1062   19.0575 C.ar    1  UNL1        0.0045
     40 O          11.2641  -29.1320   15.0041 O.3     1  UNL1       -0.4742
     41 C          10.1349  -28.0969   13.1348 C.3     1  UNL1        0.0512
     42 C          10.1452  -28.3172   14.6489 C.3     1  UNL1        0.2056
     43 O          14.8540  -27.0299   18.5981 O.3     1  UNL1       -0.4742
     44 C          15.9055  -27.8906   19.0403 C.3     1  UNL1        0.2056
     45 C          17.2404  -27.1472   18.9607 C.3     1  UNL1        0.0512
@<TRIPOS>BOND
     1    41    42    1
     2    42    40    1
     3    40    24    1
     4    24    29   ar
     5    24    25   ar
     6    25    26   ar
     7    26    27   ar
     8    26     1    1
     9    27    28   ar
    10    27    43    1
    11    28    29   ar
    12    29    30    1
    13    30    31   am
    14    31    32    2
    15    31    34    1
    16    34    39   ar
    17    34    35   ar
    18    35    36   ar
    19    36    37   ar
    20    37    38   ar
    21    38    39   ar
    22    43    44    1
    23    44    45    1
    24     1     2   am
    25     2     3    2
    26     2     5    1
    27     5     9   ar
    28     5     6   ar
    29     6     7   ar
    30     7    13    1
    31     7     8   ar
    32     8     9   ar
    33     8    10    1
    34    10    11    1
    35    10    20    1
    36    11    12    1
    37    12    13    1
    38    12    15    1
    39    15    19   ar
    40    15    16   ar
    41    16    17   ar
    42    17    18   ar
    43    18    19   ar
    44    20    21    1
    45    20    22    1
    46    20    23    1
    47    30    33    1
    48     1     4    1
    49    13    14    1
#	Name:			ZINC00962960
#	Creating user name:	trannguyen
#	Creation time:		Wed Dec  7 14:36:19 2022


#	Modifying user name:	trannguyen
#	Modification time:	Wed Dec  7 14:36:19 2022

@<TRIPOS>MOLECULE
ZINC00962960
 29 31 0 0 0
SMALL
GASTEIGER

@<TRIPOS>ATOM
      1 N          20.9323  -22.9431   14.0859 N.am    1  UNL1       -0.2569
      2 C          21.1616  -24.2712   14.0815 C.2     1  UNL1        0.3080
      3 O          21.6783  -24.8022   15.0457 O.2     1  UNL1       -0.2522
      4 N          20.8184  -25.0107   13.0083 N.am    1  UNL1       -0.2681
      5 H          20.4980  -24.5696   12.1885 H       1  UNL1        0.1564
      6 C          21.1118  -22.1729   15.3190 C.3     1  UNL1        0.0773
      7 C          19.9615  -22.4755   16.2814 C.3     1  UNL1        0.0199
      8 C          20.1490  -21.6710   17.5693 C.3     1  UNL1        0.0017
      9 C          20.1589  -20.1768   17.2403 C.3     1  UNL1        0.0001
     10 C          21.3091  -19.8741   16.2780 C.3     1  UNL1        0.0017
     11 C          21.1217  -20.6786   14.9901 C.3     1  UNL1        0.0199
     12 C          20.9177  -26.4083   13.0592 C.ar    1  UNL1        0.0516
     13 C          19.9290  -27.1517   13.6897 C.ar    1  UNL1        0.0152
     14 C          20.0238  -28.5282   13.7358 C.ar    1  UNL1        0.0074
     15 C          21.1142  -29.1689   13.1605 C.ar    1  UNL1        0.0253
     16 C          22.1059  -28.4242   12.5342 C.ar    1  UNL1        0.0074
     17 C          22.0075  -27.0481   12.4841 C.ar    1  UNL1        0.0152
     18 S          21.2388  -30.9253   13.2244 S.3     1  UNL1       -0.1127
     19 C          20.4701  -31.4765   11.6765 C.3     1  UNL1        0.0742
     20 C          20.5035  -22.2697   12.8576 C.3     1  UNL1        0.1805
     21 C          17.0397  -23.2907   12.5687 C.ar    1  UNL1        0.1969
     22 C          17.4729  -23.5318   11.3006 C.ar    1  UNL1        0.2068
     23 O          18.7699  -23.1887   11.2584 O.2     1  UNL1       -0.4333
     24 C          19.1282  -22.7520   12.4741 C.ar    1  UNL1        0.2264
     25 N          18.1029  -22.8108   13.2700 N.ar    1  UNL1       -0.2039
     26 C          15.6782  -23.5110   13.0852 C.2     1  UNL1        0.3625
     27 O          14.8671  -22.6061   13.0659 O.2     1  UNL1       -0.2431
     28 C          14.8094  -24.7478   14.9338 C.3     1  UNL1        0.2560
     29 O          15.3317  -24.7161   13.5794 O.3     1  UNL1       -0.4402
@<TRIPOS>BOND
     1    28    29    1
     2    29    26    1
     3    26    27    2
     4    26    21    1
     5    21    25   ar
     6    21    22   ar
     7    22    23   ar
     8    23    24   ar
     9    24    25   ar
    10    24    20    1
    11    20     1    1
    12     1     6    1
    13     1     2   am
    14     6    11    1
    15     6     7    1
    16     7     8    1
    17     8     9    1
    18     9    10    1
    19    10    11    1
    20     2     3    2
    21     2     4   am
    22     4    12    1
    23    12    17   ar
    24    12    13   ar
    25    13    14   ar
    26    14    15   ar
    27    15    16   ar
    28    15    18    1
    29    16    17   ar
    30    18    19    1
    31     4     5    1
#	Name:			ZINC00980639
#	Creating user name:	trannguyen
#	Creation time:		Wed Dec  7 14:36:20 2022


#	Modifying user name:	trannguyen
#	Modification time:	Wed Dec  7 14:36:20 2022

@<TRIPOS>MOLECULE
ZINC00980639
 32 33 0 0 0
SMALL
GASTEIGER

@<TRIPOS>ATOM
      1 C          15.9402  -25.9906   13.9065 C.ar    1  UNL1       -0.1235
      2 C          16.3939  -26.5432   15.0848 C.ar    1  UNL1       -0.0246
      3 C          17.6794  -26.2767   15.5469 C.ar    1  UNL1       -0.0019
      4 C          18.5191  -25.4580   14.8543 C.ar    1  UNL1       -0.0019
      5 C          18.0932  -24.8716   13.6520 C.ar    1  UNL1       -0.0246
      6 C          16.7892  -25.1379   13.1687 C.ar    1  UNL1       -0.0246
      7 C          16.3632  -24.5506   11.9669 C.ar    1  UNL1       -0.0019
      8 C          17.2026  -23.7312   11.2749 C.ar    1  UNL1       -0.0019
      9 C          18.4866  -23.4615   11.7392 C.ar    1  UNL1       -0.0246
     10 C          18.9421  -24.0186   12.9145 C.ar    1  UNL1       -0.1235
     11 N          14.6505  -26.2673   13.4497 N.am    1  UNL1       -0.6271
     12 C          13.7549  -26.8498   14.2715 C.2     1  UNL1       -0.0347
     13 S          12.7770  -25.8851   15.2933 S.2     1  UNL1       -0.0617
     14 C          12.8961  -28.8120   13.3433 C.2     1  UNL1        0.2242
     15 O          12.3537  -28.1635   12.4741 O.2     1  UNL1       -0.2748
     16 N          13.6292  -28.1915   14.2888 N.am    1  UNL1       -0.2990
     17 H          14.0729  -28.7184   14.9921 H       1  UNL1        0.1535
     18 C          13.5543  -30.8844   14.5354 C.3     1  UNL1        0.0091
     19 C          12.7504  -30.3117   13.3662 C.3     1  UNL1        0.0691
     20 C          11.2745  -30.6783   13.5342 C.3     1  UNL1        0.0091
     21 C          13.2745  -30.8952   12.0525 C.3     1  UNL1        0.0091
     22 N          20.2320  -23.7421   13.3713 N.am    1  UNL1       -0.6271
     23 C          20.4816  -22.5935   14.0306 C.2     1  UNL1       -0.0347
     24 S          21.2708  -21.3017   13.2312 S.2     1  UNL1       -0.0617
     25 N          20.1099  -22.4619   15.3194 N.am    1  UNL1       -0.2990
     26 C          20.8266  -23.0594   16.2919 C.2     1  UNL1        0.2242
     27 O          21.8058  -23.7154   16.0073 O.2     1  UNL1       -0.2748
     28 H          19.3148  -21.9292   15.5505 H       1  UNL1        0.1535
     29 C          20.4110  -22.9123   17.7330 C.3     1  UNL1        0.0691
     30 C          18.9225  -23.2382   17.8703 C.3     1  UNL1        0.0091
     31 C          21.2259  -23.8745   18.5996 C.3     1  UNL1        0.0091
     32 C          20.6627  -21.4746   18.1921 C.3     1  UNL1        0.0091
@<TRIPOS>UNITY_ATOM_ATTR
11 1
charge -1
22 1
charge -1
@<TRIPOS>BOND
     1    18    19    1
     2    19    20    1
     3    19    21    1
     4    19    14    1
     5    14    15    2
     6    14    16   am
     7    16    12    1
     8    12    13    2
     9    12    11    1
    10    11     1    1
    11     1     6   ar
    12     1     2   ar
    13     2     3   ar
    14     3     4   ar
    15     4     5   ar
    16     5    10   ar
    17     5     6   ar
    18     6     7   ar
    19     7     8   ar
    20     8     9   ar
    21     9    10   ar
    22    10    22    1
    23    22    23    1
    24    23    24    2
    25    23    25    1
    26    25    26   am
    27    26    27    2
    28    26    29    1
    29    29    30    1
    30    29    31    1
    31    29    32    1
    32    16    17    1
    33    25    28    1
#	Name:			ZINC01134474
#	Creating user name:	trannguyen
#	Creation time:		Wed Dec  7 14:36:20 2022


#	Modifying user name:	trannguyen
#	Modification time:	Wed Dec  7 14:36:20 2022

@<TRIPOS>MOLECULE
ZINC01134474
 41 44 0 0 0
SMALL
GASTEIGER

@<TRIPOS>ATOM
      1 C          15.7551  -24.7047   14.9750 C.3     1  UNL1        0.0528
      2 C          18.6081  -26.4404   17.6473 C.ar    1  UNL1        0.0845
      3 C          17.9348  -25.2811   18.0038 C.ar    1  UNL1        0.0174
      4 C          17.0176  -24.7204   17.1354 C.ar    1  UNL1       -0.0025
      5 C          16.7605  -25.3181   15.9153 C.ar    1  UNL1       -0.0147
      6 C          17.4275  -26.4735   15.5532 C.ar    1  UNL1        0.0340
      7 C          18.3526  -27.0390   16.4157 C.ar    1  UNL1        0.1467
      8 O          19.0091  -28.1757   16.0611 O.3     1  UNL1       -0.5043
      9 H          19.6345  -28.5572   16.6454 H       1  UNL1        0.2922
     10 C          20.8314  -26.6175   18.4803 C.2     1  UNL1        0.2707
     11 O          21.1679  -25.7182   17.7392 O.2     1  UNL1       -0.2707
     12 N          19.5422  -27.0081   18.5240 N.am    1  UNL1       -0.2785
     13 H          19.2569  -27.6923   19.1718 H       1  UNL1        0.1551
     14 C          21.8549  -27.2980   19.3523 C.3     1  UNL1        0.2897
     15 O          21.2607  -28.4315   19.9883 O.3     1  UNL1       -0.4656
     16 C          23.1315  -32.0702   19.4597 C.ar    1  UNL1        0.0002
     17 C          23.8860  -30.9278   19.6535 C.ar    1  UNL1        0.0031
     18 C          23.2620  -29.7082   19.8307 C.ar    1  UNL1        0.0369
     19 C          21.8770  -29.6301   19.8142 C.ar    1  UNL1        0.1393
     20 C          21.1219  -30.7786   19.6254 C.ar    1  UNL1        0.0369
     21 C          21.7509  -31.9948   19.4425 C.ar    1  UNL1        0.0031
     22 C          16.4573  -24.2291   13.7293 C.ar    1  UNL1       -0.0164
     23 C          16.0771  -24.7196   12.4936 C.ar    1  UNL1       -0.0007
     24 C          16.7144  -24.2835   11.3468 C.ar    1  UNL1        0.0376
     25 C          17.7438  -23.3605   11.4345 C.ar    1  UNL1        0.1470
     26 C          18.1308  -22.8699   12.6795 C.ar    1  UNL1        0.0842
     27 C          17.4832  -23.3082   13.8253 C.ar    1  UNL1        0.0138
     28 O          18.3753  -22.9347   10.3079 O.3     1  UNL1       -0.5043
     29 H          18.1141  -23.2654    9.4711 H       1  UNL1        0.2922
     30 N          19.1717  -21.9365   12.7742 N.am    1  UNL1       -0.2785
     31 C          20.4310  -22.3534   13.0126 C.2     1  UNL1        0.2707
     32 O          20.6513  -23.5271   13.2253 O.2     1  UNL1       -0.2707
     33 H          18.9830  -20.9763   12.6667 H       1  UNL1        0.1551
     34 C          21.5653  -21.3614   13.0149 C.3     1  UNL1        0.2897
     35 O          22.1327  -21.2896   14.3244 O.3     1  UNL1       -0.4656
     36 C          21.3901  -20.6810   15.2862 C.ar    1  UNL1        0.1393
     37 C          20.7951  -21.4362   16.2864 C.ar    1  UNL1        0.0369
     38 C          20.0458  -20.8144   17.2665 C.ar    1  UNL1        0.0031
     39 C          19.8783  -19.4422   17.2440 C.ar    1  UNL1        0.0002
     40 C          20.4656  -18.6879   16.2449 C.ar    1  UNL1        0.0031
     41 C          21.2209  -19.3042   15.2662 C.ar    1  UNL1        0.0369
@<TRIPOS>BOND
     1    16    21   ar
     2    16    17   ar
     3    17    18   ar
     4    18    19   ar
     5    19    20   ar
     6    19    15    1
     7    20    21   ar
     8    15    14    1
     9    14    10    1
    10    10    11    2
    11    10    12   am
    12    12     2    1
    13     2     7   ar
    14     2     3   ar
    15     3     4   ar
    16     4     5   ar
    17     5     6   ar
    18     5     1    1
    19     6     7   ar
    20     7     8    1
    21     1    22    1
    22    22    27   ar
    23    22    23   ar
    24    23    24   ar
    25    24    25   ar
    26    25    26   ar
    27    25    28    1
    28    26    27   ar
    29    26    30    1
    30    30    31   am
    31    31    32    2
    32    31    34    1
    33    34    35    1
    34    35    36    1
    35    36    41   ar
    36    36    37   ar
    37    37    38   ar
    38    38    39   ar
    39    39    40   ar
    40    40    41   ar
    41    12    13    1
    42     8     9    1
    43    30    33    1
    44    28    29    1
#	Name:			ZINC01237234
#	Creating user name:	trannguyen
#	Creation time:		Wed Dec  7 14:36:20 2022


#	Modifying user name:	trannguyen
#	Modification time:	Wed Dec  7 14:36:20 2022

@<TRIPOS>MOLECULE
ZINC01237234
 48 53 0 0 0
SMALL
GASTEIGER

@<TRIPOS>ATOM
      1 N          12.0263  -28.5965   16.1184 N.ar    1  UNL1       -0.2790
      2 C          11.1033  -28.3539   17.0927 C.ar    1  UNL1        0.1169
      3 C          10.1406  -29.3567   17.1095 C.ar    1  UNL1        0.1037
      4 C          10.5006  -30.3010   16.0389 C.ar    1  UNL1        0.1227
      5 C          11.7219  -29.7595   15.4366 C.ar    1  UNL1        0.1665
      6 N          12.2892  -30.3999   14.4372 N.ar    1  UNL1       -0.2248
      7 C          11.7476  -31.5358   13.9793 C.ar    1  UNL1        0.1005
      8 C          12.3472  -32.2264   12.9097 C.ar    1  UNL1        0.0207
      9 C          11.7906  -33.3801   12.4518 C.ar    1  UNL1        0.0016
     10 C          10.6289  -33.8934   13.0263 C.ar    1  UNL1        0.0016
     11 C          10.0201  -33.2538   14.0611 C.ar    1  UNL1        0.0206
     12 C          10.5663  -32.0575   14.5629 C.ar    1  UNL1        0.0990
     13 N           9.9760  -31.4200   15.5810 N.ar    1  UNL1       -0.2405
     14 N          11.1234  -27.2752   17.9378 N.pl3   1  UNL1       -0.3435
     15 H          11.8409  -26.6050   17.8636 H       1  UNL1        0.1437
     16 H          10.4205  -27.1703   18.6191 H       1  UNL1        0.1437
     17 C          15.3051  -26.1579   15.2985 C.ar    1  UNL1        0.0538
     18 C          15.4309  -27.2223   16.1952 C.ar    1  UNL1        0.0060
     19 C          14.3455  -28.0257   16.4641 C.ar    1  UNL1        0.0177
     20 C          13.1250  -27.7790   15.8439 C.ar    1  UNL1        0.0665
     21 C          12.9977  -26.7237   14.9469 C.ar    1  UNL1        0.0177
     22 C          14.0773  -25.9127   14.6776 C.ar    1  UNL1        0.0060
     23 N          16.9221  -25.1817   13.7440 N.am    1  UNL1       -0.2804
     24 C          16.4665  -25.2948   15.0074 C.2     1  UNL1        0.2495
     25 O          17.0123  -24.6860   15.9074 O.2     1  UNL1       -0.2698
     26 H          16.5245  -25.7264   13.0267 H       1  UNL1        0.1552
     27 C          20.0152  -22.5256   12.8723 C.ar    1  UNL1        0.1388
     28 C          20.3058  -23.8295   13.2462 C.ar    1  UNL1        0.0382
     29 C          19.2819  -24.7098   13.5351 C.ar    1  UNL1        0.0178
     30 C          17.9611  -24.2894   13.4517 C.ar    1  UNL1        0.0507
     31 C          17.6708  -22.9854   13.0726 C.ar    1  UNL1        0.0178
     32 C          18.6960  -22.1048   12.7892 C.ar    1  UNL1        0.0382
     33 C          20.9987  -20.3937   13.2502 C.3     1  UNL1        0.2525
     34 O          21.0240  -21.6594   12.5875 O.3     1  UNL1       -0.4714
     35 C           8.9930  -29.4515   18.0092 C.2     1  UNL1        0.2501
     36 O           8.5781  -28.4556   18.5738 O.2     1  UNL1       -0.2700
     37 N           8.3938  -30.6413   18.2142 N.am    1  UNL1       -0.3004
     38 H           8.7293  -31.4464   17.7577 H       1  UNL1        0.1498
     39 C           7.2434  -30.7364   19.1161 C.3     1  UNL1        0.0945
     40 C           7.6584  -31.4624   20.3974 C.3     1  UNL1        0.0507
     41 C           7.7459  -30.4721   21.5300 C.ar    1  UNL1        0.0135
     42 C           6.6264  -30.1888   22.2887 C.ar    1  UNL1       -0.0012
     43 C           6.7071  -29.2841   23.3307 C.ar    1  UNL1       -0.0001
     44 C           7.9053  -28.6525   23.6100 C.ar    1  UNL1        0.0031
     45 C           9.0259  -28.9283   22.8513 C.ar    1  UNL1        0.0366
     46 C           8.9489  -29.8400   21.8081 C.ar    1  UNL1        0.1347
     47 O          10.0500  -30.1127   21.0597 O.3     1  UNL1       -0.4717
     48 C          11.1084  -29.1531   21.0891 C.3     1  UNL1        0.2525
@<TRIPOS>BOND
     1    33    34    1
     2    34    27    1
     3    27    32   ar
     4    27    28   ar
     5    28    29   ar
     6    29    30   ar
     7    30    31   ar
     8    30    23    1
     9    31    32   ar
    10    23    24   am
    11    24    25    2
    12    24    17    1
    13    17    22   ar
    14    17    18   ar
    15    18    19   ar
    16    19    20   ar
    17    20    21   ar
    18    20     1    1
    19    21    22   ar
    20     1     5   ar
    21     1     2   ar
    22     2     3   ar
    23     2    14    1
    24     3     4   ar
    25     3    35    1
    26     4    13   ar
    27     4     5   ar
    28     5     6   ar
    29     6     7   ar
    30     7    12   ar
    31     7     8   ar
    32     8     9   ar
    33     9    10   ar
    34    10    11   ar
    35    11    12   ar
    36    12    13   ar
    37    35    36    2
    38    35    37   am
    39    37    39    1
    40    39    40    1
    41    40    41    1
    42    41    46   ar
    43    41    42   ar
    44    42    43   ar
    45    43    44   ar
    46    44    45   ar
    47    45    46   ar
    48    46    47    1
    49    47    48    1
    50    23    26    1
    51    37    38    1
    52    14    15    1
    53    14    16    1
#	Name:			ZINC01254014
#	Creating user name:	trannguyen
#	Creation time:		Wed Dec  7 14:36:19 2022


#	Modifying user name:	trannguyen
#	Modification time:	Wed Dec  7 14:36:19 2022

@<TRIPOS>MOLECULE
ZINC01254014
 16 16 0 0 0
SMALL
GASTEIGER

@<TRIPOS>ATOM
      1 C          20.3269  -19.5896   16.7766 C.ar    1  UNL1        0.1156
      2 O          19.2612  -19.6735   17.3579 O.2     1  UNL1       -0.3099
      3 C          20.9593  -20.7882   16.2008 C.ar    1  UNL1        0.1473
      4 N          22.1083  -20.6645   15.5871 N.ar    1  UNL1       -0.1638
      5 N          22.7073  -19.4038   15.4791 N.ar    1  UNL1       -0.2601
      6 C          22.1242  -18.3133   16.0068 C.ar    1  UNL1        0.1671
      7 O          22.6715  -17.2323   15.9003 O.2     1  UNL1       -0.2920
      8 N          20.9456  -18.3972   16.6513 N.ar    1  UNL1       -0.5739
      9 H          23.5682  -19.3145   15.0098 H       1  UNL1        0.1904
     10 S          20.1849  -22.3646   16.3422 S.3     1  UNL1       -0.0231
     11 C          20.4124  -22.8105   18.0857 C.3     1  UNL1        0.3393
     12 F          21.0533  -21.7626   18.7552 F       1  UNL1       -0.1861
     13 F          19.1649  -23.0458   18.6734 F       1  UNL1       -0.1861
     14 C          21.2549  -24.0564   18.1797 C.2     1  UNL1        0.1220
     15 O          20.9563  -25.0373   17.5404 O.co2   1  UNL1       -0.5433
     16 O          22.3371  -24.0766   18.9736 O.co2   1  UNL1       -0.5433
@<TRIPOS>UNITY_ATOM_ATTR
8 1
charge -1
16 1
charge -1
@<TRIPOS>BOND
     1     1     8   ar
     2     1     2    2
     3     1     3   ar
     4     3     4   ar
     5     3    10    1
     6     4     5   ar
     7     5     6   ar
     8     6     7    2
     9     6     8   ar
    10    10    11    1
    11    11    14    1
    12    11    12    1
    13    11    13    1
    14    14    15   ar
    15    14    16   ar
    16     5     9    1
#	Name:			ZINC01397132
#	Creating user name:	trannguyen
#	Creation time:		Wed Dec  7 14:36:19 2022


#	Modifying user name:	trannguyen
#	Modification time:	Wed Dec  7 14:36:19 2022

@<TRIPOS>MOLECULE
ZINC01397132
 20 20 0 0 0
SMALL
GASTEIGER

@<TRIPOS>ATOM
      1 C          20.8760  -21.5802   14.0528 C.ar    1  UNL1        0.1304
      2 C          20.8854  -21.5874   15.4347 C.ar    1  UNL1        0.1309
      3 N          21.4220  -20.5329   16.1014 N.ar    1  UNL1       -0.1252
      4 C          21.9395  -19.4803   15.4489 C.ar    1  UNL1        0.3625
      5 O          22.4031  -18.5593   16.0927 O.2     1  UNL1       -0.2433
      6 N          21.9662  -19.4136   14.1068 N.ar    1  UNL1       -0.2719
      7 C          21.4548  -20.4163   13.3620 C.ar    1  UNL1        0.2670
      8 O          21.4716  -20.3594   12.1466 O.2     1  UNL1       -0.2669
      9 H          22.3613  -18.6281   13.6640 H       1  UNL1        0.1735
     10 C          18.6449  -23.5509   11.8900 C.2     1  UNL1        0.4076
     11 O          19.0806  -24.6731   12.0529 O.2     1  UNL1       -0.2260
     12 N          19.2333  -22.5042   12.5019 N.am    1  UNL1       -0.2173
     13 C          20.3051  -22.7024   13.2948 C.2     1  UNL1        0.2602
     14 O          20.7996  -23.8099   13.3829 O.2     1  UNL1       -0.2694
     15 H          18.8802  -21.5947   12.3698 H       1  UNL1        0.1612
     16 O          17.5746  -23.3529   11.0981 O.3     1  UNL1       -0.4344
     17 C          15.8850  -23.3172   12.8514 C.3     1  UNL1        0.0513
     18 C          16.3198  -23.9453   11.5257 C.3     1  UNL1        0.2102
     19 O          21.4304  -20.5415   17.5173 O.3     1  UNL1       -0.3869
     20 C          20.6474  -21.5868   18.0969 C.3     1  UNL1        0.2865
@<TRIPOS>BOND
     1    17    18    1
     2    18    16    1
     3    16    10    1
     4    10    11    2
     5    10    12   am
     6    12    13   am
     7    13    14    2
     8    13     1    1
     9     1     7   ar
    10     1     2   ar
    11     2     3   ar
    12     3     4   ar
    13     3    19    1
    14     4     5    2
    15     4     6   ar
    16     6     7   ar
    17     7     8    2
    18    19    20    1
    19    12    15    1
    20     6     9    1
#	Name:			ZINC01442079
#	Creating user name:	trannguyen
#	Creation time:		Wed Dec  7 14:36:19 2022


#	Modifying user name:	trannguyen
#	Modification time:	Wed Dec  7 14:36:19 2022

@<TRIPOS>MOLECULE
ZINC01442079
 41 44 0 0 0
SMALL
GASTEIGER

@<TRIPOS>ATOM
      1 C          15.1134  -26.7412   15.2901 C.ar    1  UNL1        0.0511
      2 C          13.9678  -26.2818   14.6543 C.ar    1  UNL1        0.0544
      3 C          12.7273  -26.4815   15.2364 C.ar    1  UNL1        0.1736
      4 C          12.6326  -27.1318   16.4634 C.ar    1  UNL1        0.1722
      5 C          13.7781  -27.5838   17.0976 C.ar    1  UNL1        0.0374
      6 C          15.0158  -27.3897   16.5134 C.ar    1  UNL1        0.0005
      7 N          18.1035  -25.1043   14.0952 N.am    1  UNL1       -0.2681
      8 C          16.9820  -25.3491   14.8016 C.2     1  UNL1        0.3082
      9 O          16.5234  -24.4909   15.5307 O.2     1  UNL1       -0.2522
     10 N          16.3689  -26.5450   14.6996 N.am    1  UNL1       -0.2682
     11 H          18.4242  -25.7625   13.4370 H       1  UNL1        0.1564
     12 H          16.8030  -27.2807   14.2102 H       1  UNL1        0.1564
     13 C          20.2137  -21.5627   14.6965 C.ar    1  UNL1       -0.0227
     14 C          20.1710  -22.5184   15.6950 C.ar    1  UNL1       -0.0030
     15 C          19.4723  -23.6935   15.4988 C.ar    1  UNL1        0.0144
     16 C          18.8120  -23.9146   14.2973 C.ar    1  UNL1        0.0516
     17 C          18.8567  -22.9529   13.2965 C.ar    1  UNL1        0.0144
     18 C          19.5573  -21.7799   13.4990 C.ar    1  UNL1       -0.0030
     19 C          22.4746  -20.5855   14.9829 C.3     1  UNL1        0.0044
     20 C          20.9767  -20.2816   14.9141 C.3     1  UNL1        0.0189
     21 C          20.7038  -19.3221   13.7540 C.3     1  UNL1        0.0044
     22 C          20.5265  -19.6363   16.2263 C.3     1  UNL1        0.0044
     23 O          11.4150  -27.3240   17.0395 O.3     1  UNL1       -0.4684
     24 C          11.3281  -27.1305   18.4526 C.3     1  UNL1        0.2526
     25 O          11.6033  -26.0376   14.6127 O.3     1  UNL1       -0.4683
     26 C          10.9074  -26.9731   13.7865 C.3     1  UNL1        0.2526
     27 C          16.2604  -27.8825   17.2055 C.3     1  UNL1        0.0734
     28 C          16.6491  -26.9120   18.2910 C.ar    1  UNL1        0.0635
     29 C          17.9686  -26.4402   18.3723 C.ar    1  UNL1        0.0171
     30 C          18.9601  -26.8453   17.4643 C.ar    1  UNL1        0.0412
     31 C          20.2276  -26.3559   17.5892 C.ar    1  UNL1        0.1724
     32 C          20.5542  -25.4525   18.6126 C.ar    1  UNL1        0.1724
     33 C          19.6083  -25.0318   19.5035 C.ar    1  UNL1        0.0401
     34 C          18.2989  -25.5224   19.4040 C.ar    1  UNL1        0.0059
     35 C          17.2864  -25.1395   20.3029 C.ar    1  UNL1        0.0208
     36 C          16.0382  -25.6592   20.1414 C.ar    1  UNL1        0.0985
     37 N          15.7554  -26.5110   19.1651 N.ar    1  UNL1       -0.2478
     38 O          21.8249  -24.9815   18.7113 O.3     1  UNL1       -0.4684
     39 C          21.9818  -23.6115   19.0859 C.3     1  UNL1        0.2526
     40 O          21.1874  -26.7481   16.7101 O.3     1  UNL1       -0.4684
     41 C          20.7440  -27.2686   15.4553 C.3     1  UNL1        0.2526
@<TRIPOS>BOND
     1    19    20    1
     2    20    21    1
     3    20    22    1
     4    20    13    1
     5    13    18   ar
     6    13    14   ar
     7    14    15   ar
     8    15    16   ar
     9    16    17   ar
    10    16     7    1
    11    17    18   ar
    12     7     8   am
    13     8     9    2
    14     8    10   am
    15    10     1    1
    16     1     6   ar
    17     1     2   ar
    18     2     3   ar
    19     3     4   ar
    20     3    25    1
    21     4     5   ar
    22     4    23    1
    23     5     6   ar
    24     6    27    1
    25    27    28    1
    26    28    37   ar
    27    28    29   ar
    28    29    34   ar
    29    29    30   ar
    30    30    31   ar
    31    31    32   ar
    32    31    40    1
    33    32    33   ar
    34    32    38    1
    35    33    34   ar
    36    34    35   ar
    37    35    36   ar
    38    36    37   ar
    39    38    39    1
    40    40    41    1
    41    23    24    1
    42    25    26    1
    43     7    11    1
    44    10    12    1
#	Name:			ZINC01617897
#	Creating user name:	trannguyen
#	Creation time:		Wed Dec  7 14:36:20 2022


#	Modifying user name:	trannguyen
#	Modification time:	Wed Dec  7 14:36:20 2022

@<TRIPOS>MOLECULE
ZINC01617897
 34 35 0 0 0
SMALL
GASTEIGER

@<TRIPOS>ATOM
      1 C          16.8561  -25.3383   15.7089 C.2     1  UNL1        0.1387
      2 N          15.7748  -24.7387   15.2695 N.2     1  UNL1       -0.1448
      3 C          17.4110  -24.2580   18.5722 C.3     1  UNL1        0.0323
      4 C          18.2644  -24.0782   17.3431 C.ar    1  UNL1       -0.0070
      5 C          19.4697  -23.3892   17.2737 C.ar    1  UNL1       -0.0024
      6 C          19.9178  -23.4613   15.9671 C.ar    1  UNL1        0.1290
      7 N          19.0058  -24.1882   15.2408 N.ar    1  UNL1       -0.3473
      8 C          17.9913  -24.5729   16.0762 C.ar    1  UNL1        0.0737
      9 C          20.1599  -22.6858   18.4139 C.3     1  UNL1        0.0325
     10 H          19.0708  -24.3973   14.2810 H       1  UNL1        0.1662
     11 C          21.1529  -22.8652   15.4472 C.2     1  UNL1        0.3565
     12 O          22.1460  -23.5523   15.3036 O.2     1  UNL1       -0.2433
     13 O          21.1872  -21.5550   15.1282 O.3     1  UNL1       -0.4517
     14 C          21.1246  -21.2183   13.7172 C.3     1  UNL1        0.1366
     15 C          19.7381  -21.5652   13.1711 C.3     1  UNL1        0.0437
     16 C          21.3831  -19.7209   13.5383 C.3     1  UNL1        0.0437
     17 C          22.1865  -22.0137   12.9554 C.3     1  UNL1        0.0437
     18 N          14.7417  -25.4352   14.9352 N.2     1  UNL1       -0.1448
     19 C          14.1883  -26.2473   15.8049 C.2     1  UNL1        0.1387
     20 C          13.0531  -27.0127   15.4374 C.ar    1  UNL1        0.0737
     21 C          12.0426  -27.4312   16.2905 C.ar    1  UNL1       -0.0070
     22 C          11.1283  -28.1554   15.5342 C.ar    1  UNL1       -0.0024
     23 C          11.5817  -28.1658   14.2277 C.ar    1  UNL1        0.1290
     24 N          12.7615  -27.4635   14.1777 N.ar    1  UNL1       -0.3473
     25 C           9.8680  -28.8055   16.0443 C.3     1  UNL1        0.0325
     26 C          11.9539  -27.1541   17.7692 C.3     1  UNL1        0.0323
     27 H          13.3057  -27.3100   13.3717 H       1  UNL1        0.1662
     28 C          10.9182  -28.8149   13.0921 C.2     1  UNL1        0.3565
     29 O           9.7799  -28.5066   12.7956 O.2     1  UNL1       -0.2433
     30 O          11.5708  -29.7540   12.3765 O.3     1  UNL1       -0.4517
     31 C          11.7604  -31.0487   13.0058 C.3     1  UNL1        0.1366
     32 C          12.9652  -30.9870   13.9468 C.3     1  UNL1        0.0437
     33 C          10.5080  -31.4158   13.8043 C.3     1  UNL1        0.0437
     34 C          12.0077  -32.1076   11.9296 C.3     1  UNL1        0.0437
@<TRIPOS>BOND
     1     3     4    1
     2     4     8   ar
     3     4     5   ar
     4     5     6   ar
     5     5     9    1
     6     6     7   ar
     7     6    11    1
     8     7     8   ar
     9     8     1    1
    10     1     2    2
    11     2    18    1
    12    18    19    2
    13    19    20    1
    14    20    24   ar
    15    20    21   ar
    16    21    22   ar
    17    21    26    1
    18    22    23   ar
    19    22    25    1
    20    23    24   ar
    21    23    28    1
    22    28    29    2
    23    28    30    1
    24    30    31    1
    25    31    32    1
    26    31    33    1
    27    31    34    1
    28    11    12    2
    29    11    13    1
    30    13    14    1
    31    14    15    1
    32    14    16    1
    33    14    17    1
    34     7    10    1
    35    24    27    1
#	Name:			ZINC01631758
#	Creating user name:	trannguyen
#	Creation time:		Wed Dec  7 14:36:19 2022


#	Modifying user name:	trannguyen
#	Modification time:	Wed Dec  7 14:36:19 2022

@<TRIPOS>MOLECULE
ZINC01631758
 45 49 0 0 0
SMALL
GASTEIGER

@<TRIPOS>ATOM
      1 C          19.0305  -23.6199   17.7104 C.ar    1  UNL1        0.0504
      2 C          17.6479  -23.4904   17.7162 C.ar    1  UNL1        0.0159
      3 C          16.9230  -23.8775   18.8255 C.ar    1  UNL1        0.0159
      4 C          17.5765  -24.3964   19.9357 C.ar    1  UNL1        0.0505
      5 C          18.9598  -24.5209   19.9317 C.ar    1  UNL1        0.0159
      6 C          19.6839  -24.1392   18.8202 C.ar    1  UNL1        0.0159
      7 C          20.2899  -21.9869   16.5208 C.2     1  UNL1        0.2441
      8 O          20.0534  -21.1829   17.3976 O.2     1  UNL1       -0.2730
      9 N          19.7660  -23.2271   16.5845 N.am    1  UNL1       -0.2826
     10 H          19.9002  -23.8569   15.8399 H       1  UNL1        0.1549
     11 C          21.1695  -21.5992   15.3601 C.3     1  UNL1        0.1514
     12 N          20.3822  -21.6131   14.1247 N.am    1  UNL1       -0.2640
     13 C          20.4995  -22.6423   13.2625 C.2     1  UNL1        0.4017
     14 O          21.2582  -23.5586   13.5098 O.2     1  UNL1       -0.2264
     15 H          19.7674  -20.8707   13.9243 H       1  UNL1        0.1532
     16 O          19.7758  -22.6552   12.1272 O.3     1  UNL1       -0.4419
     17 C          18.6051  -23.5136   12.1013 C.3     1  UNL1        0.1378
     18 C          19.0192  -24.9507   12.4242 C.3     1  UNL1        0.0437
     19 C          17.5937  -23.0283   13.1417 C.3     1  UNL1        0.0437
     20 C          17.9687  -23.4665   10.7108 C.3     1  UNL1        0.0437
     21 C          21.7299  -20.1945   15.5920 C.3     1  UNL1        0.0291
     22 C          20.3460  -18.1218   15.7678 C.3     1  UNL1        0.0001
     23 C          20.8979  -19.1777   14.8079 C.3     1  UNL1        0.0021
     24 C          21.7790  -18.5002   13.7564 C.3     1  UNL1        0.0001
     25 N          16.8415  -24.7885   21.0610 N.pl3   1  UNL1       -0.2824
     26 H          16.7508  -24.1771   21.8272 H       1  UNL1        0.1551
     27 C          16.2435  -26.0334   21.0961 C.ar    1  UNL1        0.2252
     28 N          15.0879  -26.2314   20.4751 N.ar    1  UNL1       -0.1928
     29 C          14.5122  -27.4397   20.5113 C.ar    1  UNL1        0.1846
     30 N          15.1054  -28.4393   21.1792 N.ar    1  UNL1       -0.1806
     31 C          16.2591  -28.2316   21.7898 C.ar    1  UNL1        0.3140
     32 N          16.8278  -27.0342   21.7527 N.ar    1  UNL1       -0.1681
     33 F          16.8584  -29.2411   22.4582 F       1  UNL1       -0.1609
     34 C          13.2779  -27.6594   19.8512 C.ar    1  UNL1        0.0967
     35 C          13.0886  -27.6545   18.4731 C.ar    1  UNL1        0.0207
     36 C          13.9124  -27.4600   17.3496 C.ar    1  UNL1        0.0016
     37 C          13.3734  -27.5328   16.1035 C.ar    1  UNL1        0.0001
     38 C          12.0161  -27.7859   15.9055 C.ar    1  UNL1        0.0001
     39 C          11.1667  -27.9830   16.9492 C.ar    1  UNL1        0.0020
     40 C          11.6607  -27.9265   18.2639 C.ar    1  UNL1        0.0232
     41 C          11.1070  -28.0729   19.5349 C.ar    1  UNL1        0.0863
     42 N          12.0468  -27.9185   20.4863 N.ar    1  UNL1       -0.3192
     43 C          11.6436  -28.0396   21.8917 C.3     1  UNL1        0.1186
     44 C          10.1514  -28.3367   22.0987 C.3     1  UNL1        0.0880
     45 S           9.5670  -28.3981   20.3643 S.3     1  UNL1       -0.0947
@<TRIPOS>BOND
     1    22    23    1
     2    23    24    1
     3    23    21    1
     4    21    11    1
     5    11     7    1
     6    11    12    1
     7     7     8    2
     8     7     9   am
     9     9     1    1
    10     1     6   ar
    11     1     2   ar
    12     2     3   ar
    13     3     4   ar
    14     4     5   ar
    15     4    25    1
    16     5     6   ar
    17    25    27    1
    18    27    32   ar
    19    27    28   ar
    20    28    29   ar
    21    29    30   ar
    22    29    34    1
    23    30    31   ar
    24    31    32   ar
    25    31    33    1
    26    34    42   ar
    27    34    35   ar
    28    35    40   ar
    29    35    36   ar
    30    36    37   ar
    31    37    38   ar
    32    38    39   ar
    33    39    40   ar
    34    40    41   ar
    35    41    45    1
    36    41    42   ar
    37    42    43    1
    38    43    44    1
    39    44    45    1
    40    12    13   am
    41    13    14    2
    42    13    16    1
    43    16    17    1
    44    17    18    1
    45    17    19    1
    46    17    20    1
    47     9    10    1
    48    25    26    1
    49    12    15    1
#	Name:			ZINC01660723
#	Creating user name:	trannguyen
#	Creation time:		Wed Dec  7 14:36:19 2022


#	Modifying user name:	trannguyen
#	Modification time:	Wed Dec  7 14:36:19 2022

@<TRIPOS>MOLECULE
ZINC01660723
 45 47 0 0 0
SMALL
GASTEIGER

@<TRIPOS>ATOM
      1 C          18.2435  -25.6420   14.4943 C.3     1  UNL1        0.0523
      2 C          19.1052  -24.4994   14.9666 C.ar    1  UNL1        0.0489
      3 C          19.3492  -23.4179   14.1274 C.ar    1  UNL1        0.1318
      4 C          20.1391  -22.3630   14.5550 C.ar    1  UNL1        0.0491
      5 C          20.6954  -22.3576   15.8222 C.ar    1  UNL1        0.1431
      6 C          20.4563  -23.4576   16.6755 C.ar    1  UNL1        0.1018
      7 C          19.6497  -24.5221   16.2364 C.ar    1  UNL1        0.1384
      8 O          19.4099  -25.5742   17.0577 O.3     1  UNL1       -0.5055
      9 O          21.4160  -21.2272   16.0423 O.3     1  UNL1       -0.4764
     10 C          21.7446  -20.6215   14.7804 C.3     1  UNL1        0.1945
     11 C          20.5839  -21.0852   13.8686 C.3     1  UNL1        0.0784
     12 O          18.8107  -23.3957   12.8823 O.3     1  UNL1       -0.5059
     13 H          18.8722  -26.2838   16.7654 H       1  UNL1        0.2922
     14 H          18.2761  -24.1076   12.5903 H       1  UNL1        0.2922
     15 C          21.7646  -19.0962   14.8996 C.3     1  UNL1        0.1253
     16 C          21.6759  -18.4744   13.5044 C.3     1  UNL1        0.0330
     17 C          20.5725  -18.6347   15.7403 C.3     1  UNL1        0.0330
     18 O          22.9794  -18.6835   15.5288 O.3     1  UNL1       -0.3832
     19 H          23.7351  -18.9761   14.9958 H       1  UNL1        0.2104
     20 C          21.0415  -23.4865   18.0143 C.2     1  UNL1        0.1793
     21 O          21.9787  -24.2204   18.2513 O.2     1  UNL1       -0.2911
     22 C          20.4812  -22.6050   19.1006 C.3     1  UNL1        0.0775
     23 C          19.1111  -26.8403   14.2075 C.ar    1  UNL1        0.0000
     24 C          19.9572  -26.8348   13.1051 C.ar    1  UNL1       -0.0930
     25 C          20.7626  -27.9330   12.8306 C.ar    1  UNL1        0.0007
     26 C          20.7290  -29.0431   13.6532 C.ar    1  UNL1        0.1395
     27 C          19.8712  -29.0607   14.7689 C.ar    1  UNL1        0.1015
     28 C          19.0633  -27.9406   15.0419 C.ar    1  UNL1        0.1344
     29 O          18.2368  -27.9437   16.1171 O.3     1  UNL1       -0.5057
     30 O          19.9971  -25.7497   12.2918 O.co2   1  UNL1       -0.8731
     31 H          17.6998  -27.1974   16.2973 H       1  UNL1        0.2922
     32 C          19.8237  -30.2320   15.6416 C.2     1  UNL1        0.1793
     33 O          20.5208  -30.2780   16.6341 O.2     1  UNL1       -0.2911
     34 C          18.9092  -31.3826   15.3092 C.3     1  UNL1        0.0775
     35 O          21.5158  -30.1141   13.3830 O.3     1  UNL1       -0.4716
     36 C          21.0453  -31.0314   12.3934 C.3     1  UNL1        0.2525
     37 C          21.6762  -27.9134   11.6323 C.3     1  UNL1        0.0535
     38 C          23.0261  -27.3805   12.0385 C.2     1  UNL1       -0.0298
     39 C          24.0184  -27.3901   11.1833 C.2     1  UNL1       -0.0475
     40 C          23.8471  -28.0466    9.8377 C.3     1  UNL1        0.0260
     41 C          25.3312  -26.7446   11.5452 C.3     1  UNL1        0.0260
     42 C          17.5046  -25.2304   13.2193 C.3     1  UNL1        0.0090
     43 C          15.6928  -26.0538   14.7297 C.3     1  UNL1        0.0000
     44 C          15.9978  -25.2196   13.4840 C.3     1  UNL1        0.0007
     45 C          15.5294  -23.7802   13.7067 C.3     1  UNL1        0.0000
@<TRIPOS>UNITY_ATOM_ATTR
30 1
charge -1
@<TRIPOS>BOND
     1    43    44    1
     2    44    45    1
     3    44    42    1
     4    42     1    1
     5     1     2    1
     6     1    23    1
     7     2     7   ar
     8     2     3   ar
     9     3     4   ar
    10     3    12    1
    11     4    11    1
    12     4     5   ar
    13     5     6   ar
    14     5     9    1
    15     6     7   ar
    16     6    20    1
    17     7     8    1
    18    20    21    2
    19    20    22    1
    20     9    10    1
    21    10    11    1
    22    10    15    1
    23    15    16    1
    24    15    17    1
    25    15    18    1
    26    23    28   ar
    27    23    24   ar
    28    24    25   ar
    29    24    30    1
    30    25    26   ar
    31    25    37    1
    32    26    27   ar
    33    26    35    1
    34    27    28   ar
    35    27    32    1
    36    28    29    1
    37    32    33    2
    38    32    34    1
    39    35    36    1
    40    37    38    1
    41    38    39    2
    42    39    40    1
    43    39    41    1
    44     8    13    1
    45    18    19    1
    46    12    14    1
    47    29    31    1
#	Name:			ZINC02088612
#	Creating user name:	trannguyen
#	Creation time:		Wed Dec  7 14:36:19 2022


#	Modifying user name:	trannguyen
#	Modification time:	Wed Dec  7 14:36:19 2022

@<TRIPOS>MOLECULE
ZINC02088612
 31 34 0 0 0
SMALL
GASTEIGER

@<TRIPOS>ATOM
      1 C          19.2924  -23.8631   16.8907 C.2     1  UNL1        0.0737
      2 C          18.5320  -24.4560   17.8273 C.2     1  UNL1        0.0284
      3 N          17.4849  -25.2562   17.4644 N.pl3   1  UNL1       -0.3193
      4 C          16.9391  -25.1654   16.2121 C.2     1  UNL1        0.0248
      5 C          17.6340  -24.6020   15.2013 C.2     1  UNL1        0.0330
      6 C          19.0247  -24.0647   15.4282 C.3     1  UNL1        0.1126
      7 C          17.0857  -24.5037   13.9103 C.2     1  UNL1        0.1710
      8 O          17.7311  -23.9753   13.0267 O.2     1  UNL1       -0.2916
      9 C          15.7146  -25.0413   13.6034 C.3     1  UNL1        0.0736
     10 C          15.4115  -26.2051   14.5528 C.3     1  UNL1        0.0356
     11 C          15.5472  -25.7046   15.9926 C.3     1  UNL1        0.0457
     12 C          18.8358  -24.2367   19.2870 C.3     1  UNL1        0.0470
     13 H          17.1197  -25.9040   18.1096 H       1  UNL1        0.1516
     14 C          14.0066  -26.6975   14.3182 C.ar    1  UNL1       -0.0217
     15 C          13.7674  -27.6819   13.3777 C.ar    1  UNL1       -0.0043
     16 C          12.4794  -28.1368   13.1657 C.ar    1  UNL1       -0.0003
     17 C          11.4294  -27.6004   13.8873 C.ar    1  UNL1       -0.0000
     18 C          11.6680  -26.6125   14.8243 C.ar    1  UNL1       -0.0003
     19 C          12.9566  -26.1609   15.0395 C.ar    1  UNL1       -0.0043
     20 C          20.0290  -25.0414   14.8725 C.ar    1  UNL1        0.1311
     21 C          21.0061  -24.7511   13.9948 C.ar    1  UNL1        0.0368
     22 C          21.7084  -25.9537   13.7510 C.ar    1  UNL1        0.0435
     23 C          21.1132  -26.9087   14.4881 C.ar    1  UNL1        0.1792
     24 O          20.0967  -26.3503   15.1653 O.2     1  UNL1       -0.4540
     25 C          20.3656  -23.0335   17.2916 C.2     1  UNL1        0.3388
     26 O          21.4789  -23.5042   17.4322 O.2     1  UNL1       -0.2452
     27 O          20.1549  -21.7200   17.5179 O.3     1  UNL1       -0.4456
     28 C          20.8027  -20.7981   16.6389 C.3     1  UNL1        0.2088
     29 C          20.2232  -19.3980   16.8511 C.3     1  UNL1        0.0475
     30 C          21.0113  -18.8569   14.5427 C.3     1  UNL1        0.0001
     31 C          20.9990  -18.3907   15.9999 C.3     1  UNL1        0.0038
@<TRIPOS>BOND
     1    30    31    1
     2    31    29    1
     3    29    28    1
     4    28    27    1
     5    27    25    1
     6    25    26    2
     7    25     1    1
     8     1     6    1
     9     1     2    2
    10     2     3    1
    11     2    12    1
    12     3     4    1
    13     4    11    1
    14     4     5    2
    15     5     6    1
    16     5     7    1
    17     6    20    1
    18    20    24   ar
    19    20    21   ar
    20    21    22   ar
    21    22    23   ar
    22    23    24   ar
    23     7     8    2
    24     7     9    1
    25     9    10    1
    26    10    11    1
    27    10    14    1
    28    14    19   ar
    29    14    15   ar
    30    15    16   ar
    31    16    17   ar
    32    17    18   ar
    33    18    19   ar
    34     3    13    1
#	Name:			ZINC02140024
#	Creating user name:	trannguyen
#	Creation time:		Wed Dec  7 14:36:20 2022


#	Modifying user name:	trannguyen
#	Modification time:	Wed Dec  7 14:36:20 2022

@<TRIPOS>MOLECULE
ZINC02140024
 42 46 0 0 0
SMALL
GASTEIGER

@<TRIPOS>ATOM
      1 C          20.5285  -21.4395   15.7805 C.ar    1  UNL1        0.0412
      2 C          20.2069  -22.6252   15.1485 C.ar    1  UNL1        0.0027
      3 C          20.0906  -22.6665   13.7715 C.ar    1  UNL1        0.0324
      4 C          20.3013  -21.5231   13.0228 C.ar    1  UNL1        0.0047
      5 C          20.6287  -20.3365   13.6495 C.ar    1  UNL1        0.0365
      6 C          20.7457  -20.2923   15.0314 C.ar    1  UNL1        0.1370
      7 C          19.7340  -23.9599   13.0852 C.3     1  UNL1        0.1139
      8 C          18.4102  -24.4642   13.6090 C.ar    1  UNL1        0.0841
      9 C          18.1882  -25.7604   13.9254 C.ar    1  UNL1        0.0028
     10 C          16.8218  -25.8598   14.3871 C.ar    1  UNL1        0.0131
     11 C          16.0472  -26.9317   14.8417 C.ar    1  UNL1        0.0012
     12 C          14.7534  -26.6525   15.2062 C.ar    1  UNL1        0.0001
     13 C          14.2275  -25.3731   15.1324 C.ar    1  UNL1        0.0015
     14 C          14.9710  -24.2937   14.6878 C.ar    1  UNL1        0.0170
     15 C          16.2882  -24.5467   14.3107 C.ar    1  UNL1        0.0562
     16 N          17.2769  -23.7320   13.8372 N.ar    1  UNL1       -0.3521
     17 C          19.2320  -26.8402   13.7888 C.3     1  UNL1        0.0943
     18 C          20.3575  -26.3012   12.8954 C.3     1  UNL1        0.1571
     19 N          20.7765  -24.9687   13.3765 N.4     1  UNL1        0.2617
     20 H          17.1876  -22.7637   13.6831 H       1  UNL1        0.1658
     21 H          20.9318  -25.0093   14.3838 H       1  UNL1        0.2044
     22 H          21.6366  -24.7012   12.8979 H       1  UNL1        0.2044
     23 C          21.5368  -27.2379   12.9526 C.2     1  UNL1        0.3676
     24 O          21.4313  -28.3091   13.5016 O.2     1  UNL1       -0.2437
     25 O          22.7040  -26.8822   12.3935 O.3     1  UNL1       -0.4405
     26 C          23.2058  -27.7247   11.3226 C.3     1  UNL1        0.2558
     27 O          21.0672  -19.1260   15.6503 O.3     1  UNL1       -0.4717
     28 C          22.1259  -18.3572   15.0759 C.3     1  UNL1        0.2525
     29 C          20.6495  -21.3938   17.2819 C.3     1  UNL1        0.1720
     30 O          19.5516  -22.0947   17.8698 O.3     1  UNL1       -0.3441
     31 C          19.9375  -23.2187   18.6634 C.3     1  UNL1        0.1693
     32 C          19.3860  -25.5534   17.9061 C.ar    1  UNL1        0.0740
     33 C          18.4701  -26.5902   17.7149 C.ar    1  UNL1        0.0062
     34 C          17.1485  -26.4121   18.0667 C.ar    1  UNL1        0.0002
     35 C          16.7292  -25.2095   18.6081 C.ar    1  UNL1       -0.0002
     36 C          17.6323  -24.1802   18.8051 C.ar    1  UNL1       -0.0016
     37 C          18.9562  -24.3429   18.4527 C.ar    1  UNL1        0.0135
     38 C          20.8030  -25.7367   17.5312 C.2     1  UNL1        0.3410
     39 O          21.1368  -25.6666   16.3653 O.2     1  UNL1       -0.2449
     40 O          21.7252  -25.9815   18.4821 O.3     1  UNL1       -0.4454
     41 C          22.6892  -28.2079   18.2716 C.3     1  UNL1        0.0513
     42 C          21.7352  -27.3119   19.0639 C.3     1  UNL1        0.2089
@<TRIPOS>UNITY_ATOM_ATTR
19 1
charge 1
@<TRIPOS>BOND
     1    41    42    1
     2    42    40    1
     3    40    38    1
     4    38    39    2
     5    38    32    1
     6    32    37   ar
     7    32    33   ar
     8    33    34   ar
     9    34    35   ar
    10    35    36   ar
    11    36    37   ar
    12    37    31    1
    13    31    30    1
    14    30    29    1
    15    29     1    1
    16     1     6   ar
    17     1     2   ar
    18     2     3   ar
    19     3     4   ar
    20     3     7    1
    21     4     5   ar
    22     5     6   ar
    23     6    27    1
    24    27    28    1
    25     7     8    1
    26     7    19    1
    27     8    16   ar
    28     8     9   ar
    29     9    10   ar
    30     9    17    1
    31    10    15   ar
    32    10    11   ar
    33    11    12   ar
    34    12    13   ar
    35    13    14   ar
    36    14    15   ar
    37    15    16   ar
    38    17    18    1
    39    18    23    1
    40    18    19    1
    41    23    24    2
    42    23    25    1
    43    25    26    1
    44    16    20    1
    45    19    21    1
    46    19    22    1
#	Name:			ZINC02146144
#	Creating user name:	trannguyen
#	Creation time:		Wed Dec  7 14:36:19 2022


#	Modifying user name:	trannguyen
#	Modification time:	Wed Dec  7 14:36:19 2022

@<TRIPOS>MOLECULE
ZINC02146144
 39 41 0 0 0
SMALL
GASTEIGER

@<TRIPOS>ATOM
      1 C          21.1434  -20.2044   14.1059 C.3     1  UNL1        0.2371
      2 N          21.0775  -20.7052   15.4810 N.ar    1  UNL1       -0.1414
      3 N          20.4657  -21.7757   15.8560 N.ar    1  UNL1       -0.1292
      4 C          20.6297  -21.8989   17.1581 C.ar    1  UNL1        0.2058
      5 N          21.3620  -20.8483   17.5540 N.ar    1  UNL1       -0.1077
      6 N          21.6167  -20.1420   16.5053 N.ar    1  UNL1       -0.0446
      7 C          20.1008  -22.9863   18.0193 C.ar    1  UNL1        0.0392
      8 C          18.7465  -23.0255   18.3433 C.ar    1  UNL1        0.0070
      9 C          18.2589  -24.0423   19.1393 C.ar    1  UNL1        0.0715
     10 C          19.1146  -25.0144   19.6249 C.ar    1  UNL1        0.0077
     11 C          20.4612  -24.9768   19.3114 C.ar    1  UNL1        0.0715
     12 C          20.9581  -23.9680   18.5111 C.ar    1  UNL1        0.0070
     13 C          21.3875  -26.0396   19.8442 C.3     1  UNL1        0.4186
     14 F          22.2507  -26.4588   18.8261 F       1  UNL1       -0.1659
     15 F          22.1358  -25.5172   20.9044 F       1  UNL1       -0.1659
     16 F          20.6357  -27.1294   20.2963 F       1  UNL1       -0.1659
     17 C          16.7930  -24.0897   19.4851 C.3     1  UNL1        0.4186
     18 F          16.6301  -23.8704   20.8571 F       1  UNL1       -0.1659
     19 F          16.1129  -23.0977   18.7703 F       1  UNL1       -0.1659
     20 F          16.2748  -25.3450   19.1487 F       1  UNL1       -0.1659
     21 N          22.7378  -22.0633   13.7579 N.am    1  UNL1       -0.2329
     22 C          21.8216  -21.2269   13.2309 C.2     1  UNL1        0.2648
     23 O          21.5431  -21.2972   12.0526 O.2     1  UNL1       -0.2713
     24 H          22.9639  -22.0063   14.7143 H       1  UNL1        0.1728
     25 N          23.3683  -23.0138   12.9444 N.am    1  UNL1       -0.2455
     26 H          24.1186  -22.7465   12.3658 H       1  UNL1        0.1718
     27 C          22.9475  -24.2943   12.9540 C.2     1  UNL1        0.1533
     28 S          24.0761  -25.5675   12.7637 S.2     1  UNL1       -0.0170
     29 C          21.1372  -24.7698   14.3488 C.2     1  UNL1        0.2509
     30 O          21.8670  -24.6971   15.3209 O.2     1  UNL1       -0.2698
     31 N          21.6385  -24.5723   13.1135 N.am    1  UNL1       -0.2626
     32 H          21.0484  -24.6311   12.3276 H       1  UNL1        0.1569
     33 C          19.3213  -25.5950   15.6829 C.2     1  UNL1        0.0111
     34 C          19.7645  -25.0614   14.5161 C.2     1  UNL1        0.0586
     35 C          15.6102  -25.5981   15.9205 C.ar    1  UNL1        0.0075
     36 C          16.8479  -25.0486   15.6998 C.ar    1  UNL1        0.0070
     37 C          17.9466  -25.8870   15.8504 C.ar    1  UNL1        0.0296
     38 S          17.1718  -27.4269   16.3099 S.2     1  UNL1       -0.0864
     39 C          15.5185  -26.9060   16.2799 C.ar    1  UNL1        0.0354
@<TRIPOS>BOND
     1    35    39   ar
     2    35    36   ar
     3    36    37   ar
     4    37    38   ar
     5    37    33    1
     6    38    39   ar
     7    33    34    2
     8    34    29    1
     9    29    30    2
    10    29    31   am
    11    31    27    1
    12    27    28    2
    13    27    25    1
    14    25    21    1
    15    21    22   am
    16    22    23    2
    17    22     1    1
    18     1     2    1
    19     2     6   ar
    20     2     3   ar
    21     3     4   ar
    22     4     5   ar
    23     4     7    1
    24     5     6   ar
    25     7    12   ar
    26     7     8   ar
    27     8     9   ar
    28     9    10   ar
    29     9    17    1
    30    10    11   ar
    31    11    12   ar
    32    11    13    1
    33    13    14    1
    34    13    15    1
    35    13    16    1
    36    17    18    1
    37    17    19    1
    38    17    20    1
    39    31    32    1
    40    25    26    1
    41    21    24    1
#	Name:			ZINC02150096
#	Creating user name:	trannguyen
#	Creation time:		Wed Dec  7 14:36:19 2022


#	Modifying user name:	trannguyen
#	Modification time:	Wed Dec  7 14:36:19 2022

@<TRIPOS>MOLECULE
ZINC02150096
 31 34 0 0 0
SMALL
GASTEIGER

@<TRIPOS>ATOM
      1 C          20.3554  -28.2084   17.3782 C.3     1  UNL1        0.0344
      2 C          19.7053  -27.0375   18.0691 C.ar    1  UNL1        0.0187
      3 C          18.8761  -27.0826   19.1191 C.ar    1  UNL1        0.1753
      4 O          18.4932  -25.8406   19.4648 O.2     1  UNL1       -0.4507
      5 C          19.0549  -24.9195   18.6551 C.ar    1  UNL1        0.1482
      6 C          19.8535  -25.6163   17.7253 C.ar    1  UNL1        0.0338
      7 C          20.5647  -24.9274   16.7529 C.ar    1  UNL1        0.0055
      8 C          20.4774  -23.5361   16.7002 C.ar    1  UNL1        0.0308
      9 C          21.2190  -22.7761   15.6892 C.ar    1  UNL1       -0.0166
     10 C          21.1005  -21.4240   15.6885 C.ar    1  UNL1        0.0504
     11 C          20.2836  -20.7906   16.6490 C.ar    1  UNL1        0.3414
     12 O          20.1867  -19.5768   16.6367 O.2     1  UNL1       -0.2448
     13 O          19.6105  -21.4900   17.5753 O.2     1  UNL1       -0.4212
     14 C          19.6829  -22.8389   17.6338 C.ar    1  UNL1        0.1514
     15 C          18.9777  -23.5358   18.5996 C.ar    1  UNL1        0.0750
     16 C          22.0843  -23.4776   14.6742 C.3     1  UNL1        0.0310
     17 C          21.8391  -20.6015   14.6644 C.3     1  UNL1        0.0422
     18 C          20.8476  -20.0641   13.6304 C.3     1  UNL1        0.0899
     19 C          20.2853  -21.2107   12.8304 C.2     1  UNL1        0.2230
     20 O          20.9774  -21.7741   12.0090 O.2     1  UNL1       -0.2751
     21 N          19.0132  -21.6100   13.0274 N.am    1  UNL1       -0.3004
     22 H          18.4513  -21.1526   13.6940 H       1  UNL1        0.1497
     23 C          18.4666  -22.7247   12.2497 C.3     1  UNL1        0.1163
     24 C          17.6425  -23.6088   13.1498 C.ar    1  UNL1       -0.0024
     25 C          18.2564  -24.5979   13.8958 C.ar    1  UNL1        0.0005
     26 C          17.5039  -25.4060   14.7260 C.ar    1  UNL1        0.0366
     27 C          16.1296  -25.2317   14.8022 C.ar    1  UNL1        0.1387
     28 C          15.5154  -24.2422   14.0485 C.ar    1  UNL1        0.0366
     29 C          16.2730  -23.4331   13.2240 C.ar    1  UNL1        0.0005
     30 O          15.3866  -26.0287   15.6143 O.3     1  UNL1       -0.4714
     31 C          15.9337  -26.3375   16.8978 C.3     1  UNL1        0.2525
@<TRIPOS>BOND
     1     1     2    1
     2     2     6   ar
     3     2     3   ar
     4     3     4   ar
     5     4     5   ar
     6     5    15   ar
     7     5     6   ar
     8     6     7   ar
     9     7     8   ar
    10     8    14   ar
    11     8     9   ar
    12     9    10   ar
    13     9    16    1
    14    10    11   ar
    15    10    17    1
    16    11    12    2
    17    11    13   ar
    18    13    14   ar
    19    14    15   ar
    20    17    18    1
    21    18    19    1
    22    19    20    2
    23    19    21   am
    24    21    23    1
    25    23    24    1
    26    24    29   ar
    27    24    25   ar
    28    25    26   ar
    29    26    27   ar
    30    27    28   ar
    31    27    30    1
    32    28    29   ar
    33    30    31    1
    34    21    22    1
#	Name:			ZINC02234033
#	Creating user name:	trannguyen
#	Creation time:		Wed Dec  7 14:36:20 2022


#	Modifying user name:	trannguyen
#	Modification time:	Wed Dec  7 14:36:20 2022

@<TRIPOS>MOLECULE
ZINC02234033
 41 44 0 0 0
SMALL
GASTEIGER

@<TRIPOS>ATOM
      1 C          20.8603  -24.4465   16.7082 C.ar    1  UNL1        0.1706
      2 N          21.4290  -25.0141   17.7468 N.ar    1  UNL1       -0.1279
      3 N          21.1467  -26.2674   17.7724 N.ar    1  UNL1       -0.1218
      4 C          20.3796  -26.5793   16.7514 C.ar    1  UNL1        0.1975
      5 N          20.1649  -25.4306   16.0408 N.ar    1  UNL1       -0.2690
      6 C          21.1092  -20.3470   15.6259 C.ar    1  UNL1       -0.0228
      7 C          20.4129  -20.7181   16.7625 C.ar    1  UNL1       -0.0042
      8 C          20.3251  -22.0483   17.1177 C.ar    1  UNL1        0.0027
      9 C          20.9451  -23.0201   16.3304 C.ar    1  UNL1        0.0363
     10 C          21.6424  -22.6391   15.1827 C.ar    1  UNL1        0.0027
     11 C          21.7221  -21.3055   14.8386 C.ar    1  UNL1       -0.0042
     12 C          19.9914  -18.1406   15.8041 C.3     1  UNL1        0.0044
     13 C          21.2009  -18.8920   15.2442 C.3     1  UNL1        0.0189
     14 C          22.4852  -18.2933   15.8214 C.3     1  UNL1        0.0044
     15 C          21.2192  -18.7649   13.7196 C.3     1  UNL1        0.0044
     16 C          19.3988  -25.2854   14.8741 C.ar    1  UNL1        0.0674
     17 C          19.9875  -25.4660   13.6301 C.ar    1  UNL1        0.0207
     18 C          19.2320  -25.3282   12.4824 C.ar    1  UNL1        0.0384
     19 C          17.8875  -24.9985   12.5723 C.ar    1  UNL1        0.1388
     20 C          17.3000  -24.8123   13.8152 C.ar    1  UNL1        0.0384
     21 C          18.0533  -24.9555   14.9636 C.ar    1  UNL1        0.0207
     22 O          17.1454  -24.8574   11.4420 O.3     1  UNL1       -0.4714
     23 C          16.1567  -23.8256   11.4395 C.3     1  UNL1        0.2525
     24 S          19.7414  -28.1775   16.3730 S.3     1  UNL1       -0.0655
     25 C          21.1561  -28.8795   15.4888 C.3     1  UNL1        0.1513
     26 C          20.9108  -28.7988   14.0040 C.2     1  UNL1        0.2493
     27 O          19.8384  -29.1341   13.5475 O.2     1  UNL1       -0.2726
     28 N          21.8830  -28.3538   13.1836 N.am    1  UNL1       -0.2352
     29 H          22.7535  -28.0816   13.5543 H       1  UNL1        0.1728
     30 N          21.6550  -28.2788   11.8034 N.pl3   1  UNL1       -0.2632
     31 H          20.8976  -27.7534   11.4574 H       1  UNL1        0.1700
     32 C          22.5012  -28.9487   10.9190 C.2     1  UNL1        0.0611
     33 C          22.3958  -30.2695   10.7665 C.2     1  UNL1        0.0171
     34 C          23.5161  -28.1932   10.1498 C.ar    1  UNL1        0.0148
     35 C          24.0683  -27.0265   10.6787 C.ar    1  UNL1        0.0044
     36 C          25.0174  -26.3287    9.9623 C.ar    1  UNL1        0.0367
     37 C          25.4152  -26.7797    8.7108 C.ar    1  UNL1        0.1337
     38 C          24.8634  -27.9376    8.1788 C.ar    1  UNL1        0.0367
     39 C          23.9180  -28.6435    8.8923 C.ar    1  UNL1        0.0044
     40 O          26.3468  -26.0869    8.0052 O.3     1  UNL1       -0.5055
     41 H          26.7199  -25.3054    8.3630 H       1  UNL1        0.2922
@<TRIPOS>BOND
     1    12    13    1
     2    13    14    1
     3    13    15    1
     4    13     6    1
     5     6    11   ar
     6     6     7   ar
     7     7     8   ar
     8     8     9   ar
     9     9    10   ar
    10     9     1    1
    11    10    11   ar
    12     1     5   ar
    13     1     2   ar
    14     2     3   ar
    15     3     4   ar
    16     4     5   ar
    17     4    24    1
    18     5    16    1
    19    16    21   ar
    20    16    17   ar
    21    17    18   ar
    22    18    19   ar
    23    19    20   ar
    24    19    22    1
    25    20    21   ar
    26    22    23    1
    27    24    25    1
    28    25    26    1
    29    26    27    2
    30    26    28   am
    31    28    30    1
    32    30    32    1
    33    32    33    2
    34    32    34    1
    35    34    39   ar
    36    34    35   ar
    37    35    36   ar
    38    36    37   ar
    39    37    38   ar
    40    37    40    1
    41    38    39   ar
    42    28    29    1
    43    30    31    1
    44    40    41    1
#	Name:			ZINC02313639
#	Creating user name:	trannguyen
#	Creation time:		Wed Dec  7 14:36:20 2022


#	Modifying user name:	trannguyen
#	Modification time:	Wed Dec  7 14:36:20 2022

@<TRIPOS>MOLECULE
ZINC02313639
 33 34 0 0 0
SMALL
GASTEIGER

@<TRIPOS>ATOM
      1 O          15.7023  -25.3699   13.4255 O.3     1  UNL1       -0.4535
      2 C          16.0190  -25.9623   17.0030 C.ar    1  UNL1        0.0044
      3 C          15.1088  -26.9866   17.1795 C.ar    1  UNL1        0.0148
      4 C          14.3918  -27.4747   16.0941 C.ar    1  UNL1        0.0514
      5 C          14.5911  -26.9316   14.8320 C.ar    1  UNL1        0.0521
      6 C          15.5051  -25.9041   14.6593 C.ar    1  UNL1        0.1465
      7 C          16.2186  -25.4205   15.7477 C.ar    1  UNL1        0.0376
      8 N          13.4715  -28.5112   16.2725 N.pl3   1  UNL1       -0.3114
      9 H          13.5279  -29.0879   17.0684 H       1  UNL1        0.1523
     10 C          12.4956  -28.7239   15.3442 C.2     1  UNL1        0.0652
     11 C          11.2198  -28.3460   15.6033 C.2     1  UNL1        0.0620
     12 C          10.2164  -28.5647   14.6488 C.2     1  UNL1        0.2680
     13 O           9.3016  -29.3269   14.8924 O.2     1  UNL1       -0.2824
     14 C          10.2721  -27.8546   13.3208 C.3     1  UNL1        0.4555
     15 F           9.0453  -27.9976   12.6637 F       1  UNL1       -0.1631
     16 F          10.5341  -26.4962   13.5289 F       1  UNL1       -0.1631
     17 F          11.2886  -28.4108   12.5369 F       1  UNL1       -0.1631
     18 C          16.8716  -24.7168   13.1922 C.ar    1  UNL1        0.1454
     19 C          18.0437  -25.4370   13.0103 C.ar    1  UNL1        0.0388
     20 C          19.2306  -24.7748   12.7677 C.ar    1  UNL1        0.0177
     21 C          19.2532  -23.3868   12.7169 C.ar    1  UNL1        0.0485
     22 C          18.0805  -22.6665   12.9047 C.ar    1  UNL1        0.0177
     23 C          16.8933  -23.3304   13.1416 C.ar    1  UNL1        0.0388
     24 N          20.4567  -22.7148   12.4773 N.pl3   1  UNL1       -0.3115
     25 H          20.8386  -22.6974   11.5700 H       1  UNL1        0.1523
     26 C          21.1005  -22.0841   13.4998 C.2     1  UNL1        0.0652
     27 C          21.1090  -20.7296   13.5627 C.2     1  UNL1        0.0620
     28 C          21.7711  -20.0811   14.6144 C.2     1  UNL1        0.2680
     29 O          22.3749  -20.7310   15.4451 O.2     1  UNL1       -0.2824
     30 C          21.7341  -18.5779   14.7149 C.3     1  UNL1        0.4555
     31 F          20.4524  -18.1674   15.0967 F       1  UNL1       -0.1631
     32 F          22.6640  -18.1513   15.6692 F       1  UNL1       -0.1631
     33 F          22.0518  -18.0194   13.4721 F       1  UNL1       -0.1631
@<TRIPOS>BOND
     1     2     7   ar
     2     2     3   ar
     3     3     4   ar
     4     4     5   ar
     5     4     8    1
     6     5     6   ar
     7     6     7   ar
     8     6     1    1
     9     1    18    1
    10    18    23   ar
    11    18    19   ar
    12    19    20   ar
    13    20    21   ar
    14    21    22   ar
    15    21    24    1
    16    22    23   ar
    17    24    26    1
    18    26    27    2
    19    27    28    1
    20    28    29    2
    21    28    30    1
    22    30    31    1
    23    30    32    1
    24    30    33    1
    25     8    10    1
    26    10    11    2
    27    11    12    1
    28    12    13    2
    29    12    14    1
    30    14    15    1
    31    14    16    1
    32    14    17    1
    33    24    25    1
    34     8     9    1
#	Name:			ZINC02387946
#	Creating user name:	trannguyen
#	Creation time:		Wed Dec  7 14:36:19 2022


#	Modifying user name:	trannguyen
#	Modification time:	Wed Dec  7 14:36:19 2022

@<TRIPOS>MOLECULE
ZINC02387946
 44 48 0 0 0
SMALL
GASTEIGER

@<TRIPOS>ATOM
      1 C          21.7827  -23.3121   14.6381 C.ar    1  UNL1        0.1744
      2 C          20.9071  -22.3915   15.1403 C.ar    1  UNL1        0.1077
      3 N          21.5740  -21.2181   15.2139 N.ar    1  UNL1       -0.1897
      4 N          22.8749  -21.4627   14.7515 N.ar    1  UNL1       -0.0582
      5 N          22.9621  -22.7041   14.4214 N.ar    1  UNL1       -0.1240
      6 C          21.0659  -19.9964   15.6696 C.ar    1  UNL1        0.2403
      7 C          21.3309  -18.6825   15.0764 C.ar    1  UNL1        0.2063
      8 N          20.6840  -17.7833   15.7657 N.ar    1  UNL1       -0.0319
      9 O          19.9954  -18.4494   16.8094 O.2     1  UNL1       -0.2388
     10 N          20.2796  -19.8326   16.6954 N.ar    1  UNL1       -0.0272
     11 N          22.1302  -18.4371   13.9656 N.pl3   1  UNL1       -0.3375
     12 H          22.5806  -19.1838   13.5087 H       1  UNL1        0.1439
     13 H          22.2458  -17.5167   13.6361 H       1  UNL1        0.1439
     14 N          21.2538  -25.1585   13.1248 N.am    1  UNL1       -0.2010
     15 C          21.4862  -24.7339   14.3828 C.2     1  UNL1        0.2853
     16 O          21.4514  -25.5236   15.3073 O.2     1  UNL1       -0.2666
     17 H          21.2821  -24.5194   12.3765 H       1  UNL1        0.1776
     18 C          21.8668  -27.2697   12.3293 C.2     1  UNL1        0.1176
     19 N          20.9720  -26.5093   12.8822 N.2     1  UNL1       -0.1773
     20 C          21.0128  -31.3627   11.5933 C.ar    1  UNL1        0.1500
     21 C          20.3602  -30.6931   12.6203 C.ar    1  UNL1        0.0377
     22 C          20.6343  -29.3646   12.8631 C.ar    1  UNL1        0.0047
     23 C          21.5705  -28.6911   12.0740 C.ar    1  UNL1        0.0209
     24 C          22.2207  -29.3675   11.0384 C.ar    1  UNL1        0.0047
     25 C          21.9437  -30.6974   10.8063 C.ar    1  UNL1        0.0377
     26 O          20.7393  -32.6727   11.3576 O.3     1  UNL1       -0.4101
     27 N          18.9136  -33.8267   12.2410 N.am    1  UNL1       -0.2457
     28 C          19.4409  -33.0247   11.2950 C.2     1  UNL1        0.4094
     29 O          18.7446  -32.6189   10.3854 O.2     1  UNL1       -0.2258
     30 C          19.3388  -33.6307   14.6414 C.3     1  UNL1        0.0234
     31 C          19.7529  -34.3159   13.3377 C.3     1  UNL1        0.0968
     32 C          17.5011  -34.2096   12.1728 C.3     1  UNL1        0.0968
     33 C          17.3898  -35.7318   12.0671 C.3     1  UNL1        0.0234
     34 C          19.4732  -22.6364   15.5338 C.3     1  UNL1        0.1391
     35 N          19.4290  -23.5690   16.6680 N.pl3   1  UNL1       -0.3025
     36 C          19.5479  -22.8539   17.9402 C.3     1  UNL1        0.0915
     37 C          19.4670  -23.8717   19.0848 C.3     1  UNL1        0.0261
     38 C          18.0427  -24.4309   19.1180 C.3     1  UNL1        0.0294
     39 C          17.6179  -24.8193   17.7242 C.ar    1  UNL1       -0.0088
     40 C          18.2999  -24.3838   16.6011 C.ar    1  UNL1        0.0441
     41 C          17.8529  -24.7689   15.3362 C.ar    1  UNL1        0.0142
     42 C          16.7451  -25.5785   15.2040 C.ar    1  UNL1        0.0012
     43 C          16.0703  -26.0145   16.3294 C.ar    1  UNL1       -0.0002
     44 C          16.5068  -25.6354   17.5835 C.ar    1  UNL1       -0.0030
@<TRIPOS>BOND
     1    30    31    1
     2    31    27    1
     3    27    32    1
     4    27    28   am
     5    32    33    1
     6    28    29    2
     7    28    26    1
     8    26    20    1
     9    20    25   ar
    10    20    21   ar
    11    21    22   ar
    12    22    23   ar
    13    23    24   ar
    14    23    18    1
    15    24    25   ar
    16    18    19    2
    17    19    14    1
    18    14    15   am
    19    15    16    2
    20    15     1    1
    21     1     5   ar
    22     1     2   ar
    23     2     3   ar
    24     2    34    1
    25     3     4   ar
    26     3     6    1
    27     4     5   ar
    28     6    10   ar
    29     6     7   ar
    30     7     8   ar
    31     7    11    1
    32     8     9   ar
    33     9    10   ar
    34    34    35    1
    35    35    40    1
    36    35    36    1
    37    36    37    1
    38    37    38    1
    39    38    39    1
    40    39    44   ar
    41    39    40   ar
    42    40    41   ar
    43    41    42   ar
    44    42    43   ar
    45    43    44   ar
    46    14    17    1
    47    11    12    1
    48    11    13    1
#	Name:			ZINC02495666
#	Creating user name:	trannguyen
#	Creation time:		Wed Dec  7 14:36:20 2022


#	Modifying user name:	trannguyen
#	Modification time:	Wed Dec  7 14:36:20 2022

@<TRIPOS>MOLECULE
ZINC02495666
 33 35 0 0 0
SMALL
GASTEIGER

@<TRIPOS>ATOM
      1 C          21.9010  -26.4839   13.1917 C.ar    1  UNL1        0.2233
      2 N          22.3992  -25.4507   13.8633 N.ar    1  UNL1       -0.1807
      3 C          21.6006  -24.4579   14.2418 C.ar    1  UNL1        0.2268
      4 N          20.3024  -24.5040   13.9572 N.ar    1  UNL1       -0.1609
      5 C          19.8048  -25.5386   13.2909 C.ar    1  UNL1        0.3251
      6 N          20.6026  -26.5282   12.9080 N.ar    1  UNL1       -0.1611
      7 N          22.7299  -27.5131   12.7939 N.pl3   1  UNL1       -0.2989
      8 H          23.0898  -28.1411   13.4613 H       1  UNL1        0.1500
      9 C          23.0743  -27.6711   11.3788 C.3     1  UNL1        0.1162
     10 C          24.6717  -26.5183    9.9364 C.2     1  UNL1       -0.0032
     11 C          24.4132  -27.0325   11.1133 C.2     1  UNL1       -0.0049
     12 N          22.1182  -23.3810   14.9355 N.pl3   1  UNL1       -0.2824
     13 H          22.7225  -23.5311   15.6981 H       1  UNL1        0.1551
     14 C          21.7846  -22.0810   14.5552 C.ar    1  UNL1        0.0504
     15 C          22.0683  -21.6341   13.2824 C.ar    1  UNL1        0.0147
     16 C          21.7393  -20.3393   12.8931 C.ar    1  UNL1        0.0013
     17 C          21.1298  -19.4794   13.7551 C.ar    1  UNL1        0.0001
     18 C          20.8233  -19.8955   15.0619 C.ar    1  UNL1        0.0012
     19 C          21.1484  -21.2132   15.4684 C.ar    1  UNL1        0.0135
     20 C          20.8468  -21.6255   16.7757 C.ar    1  UNL1        0.0012
     21 C          20.2373  -20.7598   17.6319 C.ar    1  UNL1        0.0000
     22 C          19.9128  -19.4651   17.2316 C.ar    1  UNL1        0.0000
     23 C          20.1949  -19.0294   15.9735 C.ar    1  UNL1        0.0000
     24 O          18.4839  -25.5843   13.0014 O.3     1  UNL1       -0.4331
     25 C          17.8276  -24.3368   12.7666 C.3     1  UNL1        0.3571
     26 C          17.7908  -24.0549   11.2633 C.3     1  UNL1        0.4429
     27 F          18.1702  -25.2054   10.5636 F       1  UNL1       -0.1661
     28 F          16.4937  -23.6879   10.8892 F       1  UNL1       -0.1661
     29 F          18.6751  -23.0132   10.9625 F       1  UNL1       -0.1661
     30 C          16.3981  -24.4029   13.3082 C.3     1  UNL1        0.4429
     31 F          15.6813  -25.3834   12.6139 F       1  UNL1       -0.1661
     32 F          16.4296  -24.7245   14.6694 F       1  UNL1       -0.1661
     33 F          15.7765  -23.1615   13.1365 F       1  UNL1       -0.1661
@<TRIPOS>BOND
     1    10    11    2
     2    11     9    1
     3     9     7    1
     4     7     1    1
     5     1     6   ar
     6     1     2   ar
     7     2     3   ar
     8     3     4   ar
     9     3    12    1
    10     4     5   ar
    11     5     6   ar
    12     5    24    1
    13    24    25    1
    14    25    26    1
    15    25    30    1
    16    26    27    1
    17    26    28    1
    18    26    29    1
    19    30    31    1
    20    30    32    1
    21    30    33    1
    22    12    14    1
    23    14    19   ar
    24    14    15   ar
    25    15    16   ar
    26    16    17   ar
    27    17    18   ar
    28    18    23   ar
    29    18    19   ar
    30    19    20   ar
    31    20    21   ar
    32    21    22   ar
    33    22    23   ar
    34     7     8    1
    35    12    13    1
#	Name:			ZINC02588288
#	Creating user name:	trannguyen
#	Creation time:		Wed Dec  7 14:36:19 2022


#	Modifying user name:	trannguyen
#	Modification time:	Wed Dec  7 14:36:19 2022

@<TRIPOS>MOLECULE
ZINC02588288
 41 45 0 0 0
SMALL
GASTEIGER

@<TRIPOS>ATOM
      1 N          15.5800  -25.4511   16.8697 N.am    1  UNL1       -0.2010
      2 C          15.1484  -25.7705   15.6336 C.2     1  UNL1        0.2853
      3 O          15.9416  -25.8542   14.7152 O.2     1  UNL1       -0.2666
      4 H          14.9379  -25.3833   17.6130 H       1  UNL1        0.1776
      5 C          13.7144  -26.0186   15.3943 C.ar    1  UNL1        0.1736
      6 C          13.0470  -27.1774   15.6741 C.ar    1  UNL1        0.0991
      7 N          11.7597  -26.9839   15.3103 N.ar    1  UNL1       -0.1905
      8 N          11.6752  -25.6807   14.7999 N.ar    1  UNL1       -0.0582
      9 N          12.8438  -25.1437   14.8613 N.ar    1  UNL1       -0.1240
     10 C          10.7133  -27.9063   15.4214 C.ar    1  UNL1        0.2403
     11 C           9.9311  -28.4540   14.3095 C.ar    1  UNL1        0.2063
     12 N           9.0473  -29.2805   14.7977 N.ar    1  UNL1       -0.0319
     13 O           9.2093  -29.3074   16.2048 O.2     1  UNL1       -0.2388
     14 N          10.2721  -28.4290   16.5303 N.ar    1  UNL1       -0.0272
     15 N          10.1012  -28.1452   12.9646 N.pl3   1  UNL1       -0.3375
     16 H          10.7984  -27.5064   12.6905 H       1  UNL1        0.1439
     17 H           9.5244  -28.5654   12.2863 H       1  UNL1        0.1439
     18 C          13.6320  -28.4281   16.2778 C.3     1  UNL1        0.1116
     19 S          14.5302  -29.3495   15.0049 S.3     1  UNL1       -0.0826
     20 C          13.2248  -30.3501   14.3729 C.2     1  UNL1        0.1276
     21 N          12.7886  -30.3845   13.1523 N.2     1  UNL1       -0.2572
     22 C          11.7045  -31.2511   12.7502 C.3     1  UNL1        0.1387
     23 C          11.1524  -32.0994   13.9173 C.3     1  UNL1        0.0904
     24 S          12.2343  -31.5202   15.2808 S.3     1  UNL1       -0.0871
     25 C          17.3309  -24.6828   18.2146 C.2     1  UNL1        0.1177
     26 N          16.9422  -25.2155   17.0970 N.2     1  UNL1       -0.1773
     27 C          20.7036  -23.0286   18.2291 C.ar    1  UNL1        0.1391
     28 C          21.4615  -23.9737   18.9081 C.ar    1  UNL1        0.0369
     29 C          20.8769  -25.1431   19.3580 C.ar    1  UNL1        0.0032
     30 C          19.5347  -25.3770   19.1400 C.ar    1  UNL1        0.0018
     31 C          18.7649  -24.4347   18.4538 C.ar    1  UNL1        0.0237
     32 C          19.3573  -23.2544   18.0003 C.ar    1  UNL1        0.0385
     33 O          21.2842  -21.8811   17.7894 O.3     1  UNL1       -0.4706
     34 C          20.4182  -20.7751   17.5271 C.3     1  UNL1        0.2342
     35 C          21.7953  -18.3109   15.0202 C.ar    1  UNL1       -0.0001
     36 C          21.5213  -18.9490   13.8246 C.ar    1  UNL1        0.0023
     37 C          20.8902  -20.1781   13.8257 C.ar    1  UNL1        0.0294
     38 C          20.5321  -20.7710   15.0248 C.ar    1  UNL1        0.1396
     39 C          20.8071  -20.1313   16.2213 C.ar    1  UNL1        0.0486
     40 C          21.4334  -18.8990   16.2175 C.ar    1  UNL1        0.0016
     41 F          19.9147  -21.9726   15.0270 F       1  UNL1       -0.2044
@<TRIPOS>BOND
     1    35    40   ar
     2    35    36   ar
     3    36    37   ar
     4    37    38   ar
     5    38    39   ar
     6    38    41    1
     7    39    40   ar
     8    39    34    1
     9    34    33    1
    10    33    27    1
    11    27    32   ar
    12    27    28   ar
    13    28    29   ar
    14    29    30   ar
    15    30    31   ar
    16    31    32   ar
    17    31    25    1
    18    25    26    2
    19    26     1    1
    20     1     2   am
    21     2     3    2
    22     2     5    1
    23     5     9   ar
    24     5     6   ar
    25     6     7   ar
    26     6    18    1
    27     7     8   ar
    28     7    10    1
    29     8     9   ar
    30    10    14   ar
    31    10    11   ar
    32    11    12   ar
    33    11    15    1
    34    12    13   ar
    35    13    14   ar
    36    18    19    1
    37    19    20    1
    38    20    24    1
    39    20    21    2
    40    21    22    1
    41    22    23    1
    42    23    24    1
    43     1     4    1
    44    15    16    1
    45    15    17    1
#	Name:			ZINC02637059
#	Creating user name:	trannguyen
#	Creation time:		Wed Dec  7 14:36:20 2022


#	Modifying user name:	trannguyen
#	Modification time:	Wed Dec  7 14:36:20 2022

@<TRIPOS>MOLECULE
ZINC02637059
 40 42 0 0 0
SMALL
GASTEIGER

@<TRIPOS>ATOM
      1 N          14.1131  -26.7375   13.8480 N.am    1  UNL1       -0.2303
      2 C          14.6046  -25.7984   14.6804 C.2     1  UNL1        0.2614
      3 O          13.8475  -25.1252   15.3521 O.2     1  UNL1       -0.2686
      4 H          14.7260  -27.2799   13.3008 H       1  UNL1        0.1731
      5 C          16.0647  -25.5870   14.7764 C.ar    1  UNL1        0.0548
      6 C          16.6241  -25.0824   15.9514 C.ar    1  UNL1        0.0043
      7 C          17.9879  -24.8925   16.0362 C.ar    1  UNL1       -0.0005
      8 C          18.7995  -25.1906   14.9560 C.ar    1  UNL1        0.0212
      9 C          18.2507  -25.6856   13.7864 C.ar    1  UNL1       -0.0005
     10 C          16.8891  -25.8857   13.6905 C.ar    1  UNL1        0.0043
     11 C          20.2879  -24.9755   15.0541 C.3     1  UNL1        0.2320
     12 O          20.7342  -24.2137   13.9305 O.3     1  UNL1       -0.4706
     13 C          20.9154  -22.8805   14.1218 C.ar    1  UNL1        0.1390
     14 C          20.9440  -22.0201   13.0340 C.ar    1  UNL1        0.0366
     15 C          21.1221  -20.6645   13.2315 C.ar    1  UNL1       -0.0012
     16 C          21.2841  -20.1665   14.5112 C.ar    1  UNL1       -0.0226
     17 C          21.2616  -21.0227   15.5966 C.ar    1  UNL1       -0.0012
     18 C          21.0777  -22.3783   15.4048 C.ar    1  UNL1        0.0366
     19 C          21.4849  -18.6881   14.7232 C.3     1  UNL1        0.0189
     20 C          22.6479  -18.4653   15.6921 C.3     1  UNL1        0.0044
     21 C          21.8015  -18.0192   13.3841 C.3     1  UNL1        0.0044
     22 C          20.2094  -18.0790   15.3087 C.3     1  UNL1        0.0044
     23 C          12.2482  -28.0418   13.1491 C.2     1  UNL1        0.2557
     24 O          13.0122  -28.8546   12.6733 O.2     1  UNL1       -0.2720
     25 N          12.7297  -26.9419   13.7613 N.am    1  UNL1       -0.2324
     26 H          12.1094  -26.2821   14.1475 H       1  UNL1        0.1729
     27 C          10.7602  -28.2616   13.0558 C.3     1  UNL1        0.1775
     28 N          10.1321  -27.8984   14.3285 N.3     1  UNL1       -0.1700
     29 H          10.6522  -27.1020   14.6968 H       1  UNL1        0.1494
     30 S          10.0336  -29.0115   15.5507 S.O2    1  UNL1        0.0606
     31 O           8.7533  -28.8493   16.1456 O.2     1  UNL1       -0.1530
     32 O          10.4701  -30.2502   15.0080 O.2     1  UNL1       -0.1530
     33 C          14.0896  -27.4353   19.7304 C.3     1  UNL1        0.0307
     34 C          13.0765  -27.8295   18.6867 C.ar    1  UNL1       -0.0257
     35 C          13.4846  -28.4853   17.5401 C.ar    1  UNL1       -0.0032
     36 C          12.5548  -28.8511   16.5851 C.ar    1  UNL1        0.0196
     37 C          11.2180  -28.5512   16.7713 C.ar    1  UNL1        0.1216
     38 C          10.8101  -27.8955   17.9175 C.ar    1  UNL1        0.0153
     39 C          11.7394  -27.5348   18.8755 C.ar    1  UNL1       -0.0245
     40 C          11.2945  -26.8198   20.1253 C.3     1  UNL1        0.0307
@<TRIPOS>BOND
     1    33    34    1
     2    34    39   ar
     3    34    35   ar
     4    35    36   ar
     5    36    37   ar
     6    37    38   ar
     7    37    30    1
     8    38    39   ar
     9    39    40    1
    10    30    31    2
    11    30    32    2
    12    30    28    1
    13    28    27    1
    14    27    23    1
    15    23    24    2
    16    23    25   am
    17    25     1    1
    18     1     2   am
    19     2     3    2
    20     2     5    1
    21     5    10   ar
    22     5     6   ar
    23     6     7   ar
    24     7     8   ar
    25     8     9   ar
    26     8    11    1
    27     9    10   ar
    28    11    12    1
    29    12    13    1
    30    13    18   ar
    31    13    14   ar
    32    14    15   ar
    33    15    16   ar
    34    16    17   ar
    35    16    19    1
    36    17    18   ar
    37    19    20    1
    38    19    21    1
    39    19    22    1
    40    28    29    1
    41    25    26    1
    42     1     4    1
#	Name:			ZINC02655313
#	Creating user name:	trannguyen
#	Creation time:		Wed Dec  7 14:36:20 2022


#	Modifying user name:	trannguyen
#	Modification time:	Wed Dec  7 14:36:20 2022

@<TRIPOS>MOLECULE
ZINC02655313
 31 32 0 0 0
SMALL
GASTEIGER

@<TRIPOS>ATOM
      1 C          16.1295  -24.2479   14.3237 C.ar    1  UNL1        0.0547
      2 C          17.1440  -24.7278   15.1573 C.ar    1  UNL1        0.0027
      3 C          18.4616  -24.4765   14.8499 C.ar    1  UNL1       -0.0237
      4 C          18.7844  -23.7361   13.7159 C.ar    1  UNL1       -0.1123
      5 C          17.7761  -23.2523   12.8867 C.ar    1  UNL1       -0.0237
      6 C          16.4569  -23.5048   13.1857 C.ar    1  UNL1        0.0027
      7 N          14.2178  -25.7632   14.4978 N.am    1  UNL1       -0.2311
      8 C          14.7162  -24.5199   14.6475 C.2     1  UNL1        0.2613
      9 O          13.9996  -23.6214   15.0444 O.2     1  UNL1       -0.2686
     10 H          14.7980  -26.4906   14.1763 H       1  UNL1        0.1731
     11 N          12.8742  -26.0202   14.7998 N.am    1  UNL1       -0.2456
     12 H          12.4158  -25.4926   15.4932 H       1  UNL1        0.1718
     13 C          12.2089  -26.9899   14.1411 C.2     1  UNL1        0.1474
     14 S          13.0691  -28.1223   13.1879 S.2     1  UNL1       -0.0174
     15 N          10.8666  -27.0680   14.2328 N.am    1  UNL1       -0.3129
     16 H          10.3098  -26.2993   13.9715 H       1  UNL1        0.1486
     17 C          10.2360  -28.2968   14.7214 C.3     1  UNL1        0.1209
     18 C          10.6243  -28.5226   16.1839 C.3     1  UNL1        0.1634
     19 C           9.3778  -29.7836   17.7967 C.3     1  UNL1        0.1742
     20 O           9.4426  -28.6112   16.9824 O.3     1  UNL1       -0.3493
     21 N          20.1165  -23.4797   13.4107 N.pl3   1  UNL1       -0.5358
     22 S          20.6013  -21.9379   13.0499 S.O2    1  UNL1       -0.0564
     23 O          21.8866  -22.0454   12.4537 O.2     1  UNL1       -0.1841
     24 O          19.5073  -21.3113   12.3942 O.2     1  UNL1       -0.1841
     25 C          20.8244  -21.0907   14.5787 C.ar    1  UNL1        0.1072
     26 C          20.6215  -21.7452   15.7803 C.ar    1  UNL1        0.0363
     27 C          20.8074  -21.0646   16.9386 C.ar    1  UNL1        0.0890
     28 S          21.2700  -19.4454   16.3460 S.2     1  UNL1       -0.0628
     29 C          21.1921  -19.7855   14.5952 C.ar    1  UNL1        0.1034
     30 CL         21.5068  -18.7216   13.2600 Cl      1  UNL1       -0.0738
     31 CL         20.6336  -21.6216   18.5735 Cl      1  UNL1       -0.0751
@<TRIPOS>UNITY_ATOM_ATTR
21 1
charge -1
@<TRIPOS>BOND
     1    19    20    1
     2    20    18    1
     3    18    17    1
     4    17    15    1
     5    15    13    1
     6    13    14    2
     7    13    11    1
     8    11     7    1
     9     7     8   am
    10     8     9    2
    11     8     1    1
    12     1     6   ar
    13     1     2   ar
    14     2     3   ar
    15     3     4   ar
    16     4     5   ar
    17     4    21    1
    18     5     6   ar
    19    21    22    1
    20    22    23    2
    21    22    24    2
    22    22    25    1
    23    25    29   ar
    24    25    26   ar
    25    26    27   ar
    26    27    28   ar
    27    27    31    1
    28    28    29   ar
    29    29    30    1
    30    15    16    1
    31    11    12    1
    32     7    10    1
#	Name:			ZINC02818808
#	Creating user name:	trannguyen
#	Creation time:		Wed Dec  7 14:36:19 2022


#	Modifying user name:	trannguyen
#	Modification time:	Wed Dec  7 14:36:19 2022

@<TRIPOS>MOLECULE
ZINC02818808
 30 31 0 0 0
SMALL
GASTEIGER

@<TRIPOS>ATOM
      1 C          19.6525  -22.2496   13.3183 C.ar    1  UNL1        0.0846
      2 C          19.0390  -22.7920   12.1986 C.ar    1  UNL1        0.0159
      3 C          18.6167  -24.1071   12.2100 C.ar    1  UNL1       -0.0231
      4 C          18.8056  -24.8894   13.3420 C.ar    1  UNL1       -0.1204
      5 C          19.4192  -24.3504   14.4646 C.ar    1  UNL1        0.0136
      6 C          19.8476  -23.0336   14.4532 C.ar    1  UNL1        0.1502
      7 C          21.3211  -20.6085   12.8737 C.2     1  UNL1        0.2262
      8 O          22.0839  -21.4925   12.5452 O.2     1  UNL1       -0.2748
      9 N          20.0816  -20.9141   13.3057 N.am    1  UNL1       -0.2816
     10 H          19.4772  -20.2000   13.6123 H       1  UNL1        0.1549
     11 C          21.7573  -19.1683   12.7931 C.3     1  UNL1        0.0854
     12 C          21.2943  -18.4242   14.0473 C.3     1  UNL1        0.0096
     13 C          21.2108  -19.1748   16.4289 C.3     1  UNL1        0.0000
     14 C          22.1327  -18.8737   15.2456 C.3     1  UNL1        0.0005
     15 O          20.4534  -22.5051   15.5498 O.3     1  UNL1       -0.4702
     16 C          19.8231  -22.7327   16.8119 C.3     1  UNL1        0.2525
     17 N          18.3766  -26.2223   13.3510 N.am    1  UNL1       -0.6270
     18 C          19.2553  -27.2113   13.6084 C.2     1  UNL1       -0.0344
     19 S          19.2157  -28.0205   15.1167 S.2     1  UNL1       -0.0617
     20 N          20.1652  -27.5632   12.6786 N.am    1  UNL1       -0.2955
     21 C          21.4598  -27.2257   12.8408 C.2     1  UNL1        0.2487
     22 O          21.8075  -26.6025   13.8276 O.2     1  UNL1       -0.2698
     23 H          19.8841  -28.0670   11.8808 H       1  UNL1        0.1538
     24 C          22.4144  -27.5949   11.8652 C.2     1  UNL1        0.0611
     25 C          23.6762  -27.0992   11.9288 C.2     1  UNL1        0.0422
     26 C          24.6318  -27.4690   10.9522 C.ar    1  UNL1        0.1457
     27 C          24.6724  -27.0264    9.6458 C.ar    1  UNL1        0.0407
     28 C          25.7803  -27.6463    9.0487 C.ar    1  UNL1        0.0438
     29 C          26.3544  -28.4304    9.9883 C.ar    1  UNL1        0.1796
     30 O          25.6623  -28.3219   11.1307 O.2     1  UNL1       -0.4504
@<TRIPOS>UNITY_ATOM_ATTR
17 1
charge -1
@<TRIPOS>BOND
     1    13    14    1
     2    14    12    1
     3    12    11    1
     4    11     7    1
     5     7     8    2
     6     7     9   am
     7     9     1    1
     8     1     6   ar
     9     1     2   ar
    10     2     3   ar
    11     3     4   ar
    12     4     5   ar
    13     4    17    1
    14     5     6   ar
    15     6    15    1
    16    15    16    1
    17    17    18    1
    18    18    19    2
    19    18    20    1
    20    20    21   am
    21    21    22    2
    22    21    24    1
    23    24    25    2
    24    25    26    1
    25    26    30   ar
    26    26    27   ar
    27    27    28   ar
    28    28    29   ar
    29    29    30   ar
    30     9    10    1
    31    20    23    1
#	Name:			ZINC02852384
#	Creating user name:	trannguyen
#	Creation time:		Wed Dec  7 14:36:19 2022


#	Modifying user name:	trannguyen
#	Modification time:	Wed Dec  7 14:36:19 2022

@<TRIPOS>MOLECULE
ZINC02852384
 40 44 0 0 0
SMALL
GASTEIGER

@<TRIPOS>ATOM
      1 N          15.6243  -27.5238   17.9068 N.am    1  UNL1       -0.3121
      2 H          16.3603  -28.0612   17.5343 H       1  UNL1        0.1488
      3 C          15.6172  -27.2068   19.2167 C.2     1  UNL1        0.1354
      4 S          14.1314  -27.0688   20.0559 S.2     1  UNL1       -0.0185
      5 N          16.7795  -26.9931   19.8647 N.am    1  UNL1       -0.2959
      6 H          16.9640  -27.4598   20.7117 H       1  UNL1        0.1539
      7 C          17.7238  -26.1081   19.3336 C.ar    1  UNL1        0.0496
      8 C          18.9526  -26.5830   18.8939 C.ar    1  UNL1        0.0159
      9 C          19.8808  -25.7073   18.3658 C.ar    1  UNL1        0.0182
     10 C          19.5920  -24.3575   18.2844 C.ar    1  UNL1        0.0894
     11 C          18.3715  -23.8806   18.7263 C.ar    1  UNL1        0.0182
     12 C          17.4368  -24.7518   19.2505 C.ar    1  UNL1        0.0159
     13 S          20.7814  -23.2427   17.6157 S.O2    1  UNL1       -0.0559
     14 O          21.3000  -22.4981   18.7093 O.2     1  UNL1       -0.1841
     15 O          21.6120  -24.0054   16.7512 O.2     1  UNL1       -0.1841
     16 N          19.9616  -22.1685   16.6583 N.pl3   1  UNL1       -0.5049
     17 C          20.5606  -20.9782   16.2837 C.ar    1  UNL1        0.0590
     18 N          21.6167  -21.0093   15.4843 N.ar    1  UNL1       -0.2485
     19 C          22.2092  -19.8898   15.1030 C.ar    1  UNL1        0.1000
     20 C          21.7191  -18.6762   15.5592 C.ar    1  UNL1        0.0412
     21 C          20.6162  -18.6804   16.3987 C.ar    1  UNL1        0.1000
     22 N          20.0674  -19.8353   16.7375 N.ar    1  UNL1       -0.2485
     23 C          14.5368  -27.0688   17.0371 C.3     1  UNL1        0.1187
     24 C          14.5587  -26.4017   14.5252 C.ar    1  UNL1        0.1004
     25 C          15.1155  -26.3957   15.8193 C.ar    1  UNL1        0.0359
     26 C          16.2571  -25.6748   15.7768 C.ar    1  UNL1        0.0993
     27 N          16.4294  -25.2422   14.5004 N.ar    1  UNL1       -0.2285
     28 N          15.3516  -25.7074   13.7361 N.ar    1  UNL1       -0.1653
     29 C          10.9474  -28.3269   13.3702 C.ar    1  UNL1        0.0000
     30 C          12.1628  -28.8244   12.9359 C.ar    1  UNL1        0.0000
     31 C          13.3380  -28.2036   13.3079 C.ar    1  UNL1        0.0015
     32 C          13.2985  -27.0734   14.1220 C.ar    1  UNL1        0.0191
     33 C          12.0716  -26.5797   14.5608 C.ar    1  UNL1        0.0015
     34 C          10.9023  -27.2053   14.1784 C.ar    1  UNL1        0.0000
     35 C          17.4953  -24.4630   14.0318 C.ar    1  UNL1        0.0828
     36 C          18.8044  -24.8705   14.2520 C.ar    1  UNL1        0.0191
     37 C          19.8530  -24.1034   13.7834 C.ar    1  UNL1        0.0015
     38 C          19.6006  -22.9244   13.1063 C.ar    1  UNL1        0.0001
     39 C          18.2981  -22.5130   12.8904 C.ar    1  UNL1        0.0015
     40 C          17.2451  -23.2788   13.3511 C.ar    1  UNL1        0.0191
@<TRIPOS>UNITY_ATOM_ATTR
16 1
charge -1
@<TRIPOS>BOND
     1    29    34   ar
     2    29    30   ar
     3    30    31   ar
     4    31    32   ar
     5    32    33   ar
     6    32    24    1
     7    33    34   ar
     8    24    28   ar
     9    24    25   ar
    10    25    26   ar
    11    25    23    1
    12    26    27   ar
    13    27    28   ar
    14    27    35    1
    15    35    40   ar
    16    35    36   ar
    17    36    37   ar
    18    37    38   ar
    19    38    39   ar
    20    39    40   ar
    21    23     1    1
    22     1     3    1
    23     3     4    2
    24     3     5    1
    25     5     7    1
    26     7    12   ar
    27     7     8   ar
    28     8     9   ar
    29     9    10   ar
    30    10    11   ar
    31    10    13    1
    32    11    12   ar
    33    13    14    2
    34    13    15    2
    35    13    16    1
    36    16    17    1
    37    17    22   ar
    38    17    18   ar
    39    18    19   ar
    40    19    20   ar
    41    20    21   ar
    42    21    22   ar
    43     1     2    1
    44     5     6    1
#	Name:			ZINC02853264
#	Creating user name:	trannguyen
#	Creation time:		Wed Dec  7 14:36:19 2022


#	Modifying user name:	trannguyen
#	Modification time:	Wed Dec  7 14:36:19 2022

@<TRIPOS>MOLECULE
ZINC02853264
 41 44 0 0 0
SMALL
GASTEIGER

@<TRIPOS>ATOM
      1 N          14.8631  -24.8383   14.4243 N.am    1  UNL1       -0.2453
      2 H          14.4240  -23.9594   14.3601 H       1  UNL1        0.1718
      3 N          14.0982  -26.0101   14.3557 N.am    1  UNL1       -0.2286
      4 C          12.8288  -26.0137   14.8085 C.2     1  UNL1        0.2960
      5 O          12.3470  -24.9992   15.2770 O.2     1  UNL1       -0.2653
      6 H          14.4880  -26.8309   13.9768 H       1  UNL1        0.1732
      7 C          12.0281  -27.2404   14.7367 C.ar    1  UNL1        0.1995
      8 C          11.1327  -27.6701   15.6738 C.ar    1  UNL1        0.0452
      9 C          10.6006  -28.8790   15.1990 C.ar    1  UNL1        0.0401
     10 C          11.1870  -29.1311   14.0080 C.ar    1  UNL1        0.1670
     11 O          12.0508  -28.1444   13.7355 O.2     1  UNL1       -0.4494
     12 C          10.9182  -30.3285   13.1333 C.3     1  UNL1        0.2690
     13 O          11.7725  -31.4052   13.5244 O.3     1  UNL1       -0.4664
     14 C          12.3319  -32.1423   12.5284 C.ar    1  UNL1        0.1497
     15 C          13.4010  -31.6345   11.8052 C.ar    1  UNL1        0.0387
     16 C          13.9716  -32.3871   10.7968 C.ar    1  UNL1        0.0146
     17 C          13.4742  -33.6447   10.5042 C.ar    1  UNL1        0.0587
     18 C          12.4046  -34.1515   11.2203 C.ar    1  UNL1        0.0258
     19 C          11.8306  -33.4018   12.2302 C.ar    1  UNL1        0.0924
     20 CL         10.4887  -34.0381   13.1292 Cl      1  UNL1       -0.0791
     21 CL         14.1931  -34.5876    9.2361 Cl      1  UNL1       -0.0822
     22 C          16.1999  -24.9142   14.5781 C.2     1  UNL1        0.1511
     23 S          16.8844  -24.8794   16.1469 S.2     1  UNL1       -0.0171
     24 N          16.9978  -25.0174   13.4968 N.am    1  UNL1       -0.2948
     25 H          16.7754  -25.6545   12.7800 H       1  UNL1        0.1539
     26 C          20.4053  -22.6409   13.1871 C.ar    1  UNL1        0.0894
     27 C          20.5284  -23.9919   13.4552 C.ar    1  UNL1        0.0182
     28 C          19.4006  -24.7825   13.5587 C.ar    1  UNL1        0.0159
     29 C          18.1420  -24.2193   13.3931 C.ar    1  UNL1        0.0497
     30 C          18.0221  -22.8631   13.1187 C.ar    1  UNL1        0.0159
     31 C          19.1535  -22.0770   13.0217 C.ar    1  UNL1        0.0182
     32 S          21.8465  -21.6358   13.0565 S.O2    1  UNL1       -0.0559
     33 O          22.8345  -22.4246   12.4077 O.2     1  UNL1       -0.1841
     34 O          21.4205  -20.3790   12.5482 O.2     1  UNL1       -0.1841
     35 N          22.3941  -21.3628   14.5953 N.pl3   1  UNL1       -0.5049
     36 C          19.8769  -19.8719   17.4120 C.ar    1  UNL1        0.0412
     37 C          20.1862  -21.2226   17.3825 C.ar    1  UNL1        0.1000
     38 N          21.0096  -21.6759   16.4517 N.ar    1  UNL1       -0.2485
     39 C          21.5363  -20.8547   15.5553 C.ar    1  UNL1        0.0590
     40 N          21.2655  -19.5578   15.5592 N.ar    1  UNL1       -0.2485
     41 C          20.4455  -19.0410   16.4594 C.ar    1  UNL1        0.1000
@<TRIPOS>UNITY_ATOM_ATTR
35 1
charge -1
@<TRIPOS>BOND
     1    36    41   ar
     2    36    37   ar
     3    37    38   ar
     4    38    39   ar
     5    39    40   ar
     6    39    35    1
     7    40    41   ar
     8    35    32    1
     9    32    33    2
    10    32    34    2
    11    32    26    1
    12    26    31   ar
    13    26    27   ar
    14    27    28   ar
    15    28    29   ar
    16    29    30   ar
    17    29    24    1
    18    30    31   ar
    19    24    22    1
    20    22    23    2
    21    22     1    1
    22     1     3    1
    23     3     4   am
    24     4     5    2
    25     4     7    1
    26     7    11   ar
    27     7     8   ar
    28     8     9   ar
    29     9    10   ar
    30    10    11   ar
    31    10    12    1
    32    12    13    1
    33    13    14    1
    34    14    19   ar
    35    14    15   ar
    36    15    16   ar
    37    16    17   ar
    38    17    18   ar
    39    17    21    1
    40    18    19   ar
    41    19    20    1
    42    24    25    1
    43     1     2    1
    44     3     6    1
#	Name:			ZINC02932738
#	Creating user name:	trannguyen
#	Creation time:		Wed Dec  7 14:36:19 2022


#	Modifying user name:	trannguyen
#	Modification time:	Wed Dec  7 14:36:19 2022

@<TRIPOS>MOLECULE
ZINC02932738
 40 43 0 0 0
SMALL
GASTEIGER

@<TRIPOS>ATOM
      1 C          14.9764  -24.7235   15.1785 C.3     1  UNL1        0.1115
      2 C          15.1076  -27.0242   16.0303 C.ar    1  UNL1        0.1738
      3 N          14.6014  -28.1784   16.3713 N.ar    1  UNL1       -0.2218
      4 C          13.2675  -28.4476   16.2476 C.ar    1  UNL1        0.0945
      5 C          12.5846  -29.6310   16.5633 C.ar    1  UNL1        0.0268
      6 C          11.2508  -29.7172   16.3724 C.ar    1  UNL1        0.0372
      7 S          10.8411  -28.1065   15.7206 S.2     1  UNL1       -0.0802
      8 C          12.4707  -27.4068   15.7378 C.ar    1  UNL1        0.1033
      9 C          13.0178  -26.1767   15.3819 C.ar    1  UNL1        0.2697
     10 O          12.3144  -25.2827   14.9413 O.2     1  UNL1       -0.2663
     11 N          14.3516  -25.9987   15.5383 N.ar    1  UNL1       -0.2752
     12 S          16.8418  -26.7760   16.2203 S.3     1  UNL1       -0.0725
     13 C          16.9236  -26.4830   18.0045 C.3     1  UNL1        0.0910
     14 C          16.8940  -23.7501   18.9411 C.3     1  UNL1        0.0307
     15 C          18.2034  -24.4801   18.7886 C.ar    1  UNL1       -0.0250
     16 C          19.3906  -23.8422   19.0972 C.ar    1  UNL1       -0.0045
     17 C          20.5916  -24.5120   18.9578 C.ar    1  UNL1       -0.0003
     18 C          20.6057  -25.8198   18.5096 C.ar    1  UNL1       -0.0003
     19 C          19.4186  -26.4593   18.2060 C.ar    1  UNL1       -0.0037
     20 C          18.2177  -25.7876   18.3406 C.ar    1  UNL1       -0.0148
     21 C          15.5324  -24.8114   13.7558 C.3     1  UNL1        0.0342
     22 C          15.9974  -23.4257   13.3034 C.3     1  UNL1        0.0870
     23 C          17.5037  -23.3788   13.2967 C.2     1  UNL1        0.2225
     24 O          18.0788  -22.4387   12.7905 O.2     1  UNL1       -0.2751
     25 N          18.2117  -24.3814   13.8534 N.am    1  UNL1       -0.3040
     26 H          17.7448  -25.1445   14.2645 H       1  UNL1        0.1494
     27 C          19.6759  -24.3358   13.8469 C.3     1  UNL1        0.0941
     28 C          20.1819  -23.9978   15.2507 C.3     1  UNL1        0.0476
     29 C          20.5957  -22.5495   15.3003 C.ar    1  UNL1       -0.0204
     30 C          20.3019  -21.7845   16.4134 C.ar    1  UNL1       -0.0028
     31 C          20.6853  -20.4572   16.4608 C.ar    1  UNL1        0.0196
     32 C          21.3545  -19.8925   15.3911 C.ar    1  UNL1        0.1217
     33 C          21.6437  -20.6562   14.2757 C.ar    1  UNL1        0.0196
     34 C          21.2641  -21.9846   14.2302 C.ar    1  UNL1       -0.0028
     35 S          21.8394  -18.1997   15.4495 S.O2    1  UNL1        0.0572
     36 O          22.7760  -18.0819   16.5116 O.2     1  UNL1       -0.1532
     37 O          22.1484  -17.8193   14.1156 O.2     1  UNL1       -0.1532
     38 N          20.5065  -17.3236   15.8947 N.3     1  UNL1       -0.2035
     39 H          20.2454  -17.5641   16.8510 H       1  UNL1        0.1442
     40 H          19.7324  -17.5394   15.2664 H       1  UNL1        0.1442
@<TRIPOS>BOND
     1    14    15    1
     2    15    20   ar
     3    15    16   ar
     4    16    17   ar
     5    17    18   ar
     6    18    19   ar
     7    19    20   ar
     8    20    13    1
     9    13    12    1
    10    12     2    1
    11     2    11   ar
    12     2     3   ar
    13     3     4   ar
    14     4     8   ar
    15     4     5   ar
    16     5     6   ar
    17     6     7   ar
    18     7     8   ar
    19     8     9   ar
    20     9    10    2
    21     9    11   ar
    22    11     1    1
    23     1    21    1
    24    21    22    1
    25    22    23    1
    26    23    24    2
    27    23    25   am
    28    25    27    1
    29    27    28    1
    30    28    29    1
    31    29    34   ar
    32    29    30   ar
    33    30    31   ar
    34    31    32   ar
    35    32    33   ar
    36    32    35    1
    37    33    34   ar
    38    35    36    2
    39    35    37    2
    40    35    38    1
    41    25    26    1
    42    38    39    1
    43    38    40    1
#	Name:			ZINC02932781
#	Creating user name:	trannguyen
#	Creation time:		Wed Dec  7 14:36:19 2022


#	Modifying user name:	trannguyen
#	Modification time:	Wed Dec  7 14:36:19 2022

@<TRIPOS>MOLECULE
ZINC02932781
 41 44 0 0 0
SMALL
GASTEIGER

@<TRIPOS>ATOM
      1 C          20.0058  -28.7178   15.8793 C.3     1  UNL1        0.1115
      2 N          20.6948  -28.9061   14.6001 N.ar    1  UNL1       -0.2752
      3 C          20.9374  -30.1529   14.1294 C.ar    1  UNL1        0.2697
      4 O          20.5895  -31.1383   14.7587 O.2     1  UNL1       -0.2663
      5 C          21.5950  -30.2801   12.9086 C.ar    1  UNL1        0.1033
      6 C          22.0032  -29.1544   12.1709 C.ar    1  UNL1        0.0945
      7 C          22.6535  -29.4304   10.9594 C.ar    1  UNL1        0.0268
      8 C          22.8508  -30.7079   10.5700 C.ar    1  UNL1        0.0372
      9 S          22.1231  -31.6437   11.9048 S.2     1  UNL1       -0.0802
     10 N          21.7168  -27.9377   12.7226 N.ar    1  UNL1       -0.2218
     11 C          21.0950  -27.8266   13.8654 C.ar    1  UNL1        0.1738
     12 S          20.7645  -26.2128   14.4909 S.3     1  UNL1       -0.0724
     13 C          19.9432  -25.4808   13.0537 C.3     1  UNL1        0.0921
     14 C          18.5608  -25.0246   13.4434 C.ar    1  UNL1       -0.0002
     15 C          17.7402  -25.8584   14.1802 C.ar    1  UNL1       -0.0003
     16 C          16.4727  -25.4409   14.5388 C.ar    1  UNL1        0.0294
     17 C          16.0238  -24.1867   14.1604 C.ar    1  UNL1        0.1410
     18 C          16.8452  -23.3520   13.4225 C.ar    1  UNL1        0.0407
     19 C          18.1158  -23.7695   13.0687 C.ar    1  UNL1        0.0568
     20 CL         19.1496  -22.7205   12.1498 Cl      1  UNL1       -0.0825
     21 F          14.7847  -23.7781   14.5110 F       1  UNL1       -0.2041
     22 C          21.0259  -28.7579   17.0188 C.3     1  UNL1        0.0342
     23 C          20.4454  -28.0557   18.2479 C.3     1  UNL1        0.0870
     24 N          19.8369  -25.6776   17.9426 N.am    1  UNL1       -0.3040
     25 C          20.7943  -26.5903   18.2008 C.2     1  UNL1        0.2225
     26 O          21.9367  -26.2324   18.3951 O.2     1  UNL1       -0.2751
     27 H          18.9095  -25.9681   17.7848 H       1  UNL1        0.1494
     28 C          20.1760  -24.2531   17.8969 C.3     1  UNL1        0.0941
     29 C          19.4278  -23.5877   16.7401 C.3     1  UNL1        0.0476
     30 C          19.7180  -21.1820   17.3675 C.ar    1  UNL1       -0.0028
     31 C          20.2471  -19.9245   17.1446 C.ar    1  UNL1        0.0196
     32 C          21.0516  -19.6985   16.0434 C.ar    1  UNL1        0.1217
     33 C          21.3301  -20.7309   15.1673 C.ar    1  UNL1        0.0196
     34 C          20.8046  -21.9894   15.3927 C.ar    1  UNL1       -0.0028
     35 C          20.0008  -22.2156   16.4944 C.ar    1  UNL1       -0.0204
     36 S          21.7225  -18.0947   15.7568 S.O2    1  UNL1        0.0572
     37 O          20.6772  -17.1660   16.0101 O.2     1  UNL1       -0.1532
     38 O          22.9668  -18.0466   16.4414 O.2     1  UNL1       -0.1532
     39 N          22.0673  -17.9899   14.1405 N.3     1  UNL1       -0.2035
     40 H          21.1996  -18.0205   13.6050 H       1  UNL1        0.1442
     41 H          22.6625  -18.7722   13.8683 H       1  UNL1        0.1442
@<TRIPOS>BOND
     1    30    35   ar
     2    30    31   ar
     3    31    32   ar
     4    32    33   ar
     5    32    36    1
     6    33    34   ar
     7    34    35   ar
     8    35    29    1
     9    29    28    1
    10    28    24    1
    11    24    25   am
    12    25    26    2
    13    25    23    1
    14    23    22    1
    15    22     1    1
    16     1     2    1
    17     2    11   ar
    18     2     3   ar
    19     3     4    2
    20     3     5   ar
    21     5     9   ar
    22     5     6   ar
    23     6     7   ar
    24     6    10   ar
    25     7     8   ar
    26     8     9   ar
    27    10    11   ar
    28    11    12    1
    29    12    13    1
    30    13    14    1
    31    14    19   ar
    32    14    15   ar
    33    15    16   ar
    34    16    17   ar
    35    17    18   ar
    36    17    21    1
    37    18    19   ar
    38    19    20    1
    39    36    37    2
    40    36    38    2
    41    36    39    1
    42    24    27    1
    43    39    40    1
    44    39    41    1
#	Name:			ZINC02948784
#	Creating user name:	trannguyen
#	Creation time:		Wed Dec  7 14:36:19 2022


#	Modifying user name:	trannguyen
#	Modification time:	Wed Dec  7 14:36:19 2022

@<TRIPOS>MOLECULE
ZINC02948784
 38 41 0 0 0
SMALL
GASTEIGER

@<TRIPOS>ATOM
      1 C          16.1253  -24.5840   14.6391 C.ar    1  UNL1        0.1320
      2 C          16.7445  -24.2997   13.3958 C.ar    1  UNL1        0.0491
      3 C          16.0017  -24.0570   12.2357 C.ar    1  UNL1        0.0043
      4 C          16.6503  -23.7885   11.0658 C.ar    1  UNL1        0.0002
      5 C          18.0406  -23.7536   11.0113 C.ar    1  UNL1        0.0015
      6 C          18.7932  -23.9865   12.1240 C.ar    1  UNL1        0.0193
      7 C          18.1591  -24.2651   13.3425 C.ar    1  UNL1        0.0861
      8 N          18.8539  -24.5016   14.4653 N.ar    1  UNL1       -0.2211
      9 C          18.2264  -24.7614   15.5969 C.ar    1  UNL1        0.1915
     10 N          16.8996  -24.8089   15.6898 N.ar    1  UNL1       -0.2064
     11 N          14.7521  -24.6307   14.7503 N.pl3   1  UNL1       -0.3177
     12 H          14.2067  -23.8746   14.4338 H       1  UNL1        0.1482
     13 C          14.1044  -25.8052   15.3392 C.3     1  UNL1        0.0929
     14 C          12.6136  -25.7915   14.9957 C.3     1  UNL1        0.0476
     15 C          11.4548  -29.6247   13.4949 C.ar    1  UNL1        0.1724
     16 C          10.5682  -28.5610   13.4450 C.ar    1  UNL1        0.0397
     17 C          10.9437  -27.3245   13.9361 C.ar    1  UNL1       -0.0009
     18 C          12.2071  -27.1430   14.4674 C.ar    1  UNL1       -0.0173
     19 C          13.0965  -28.2001   14.5201 C.ar    1  UNL1        0.0358
     20 C          12.7244  -29.4435   14.0347 C.ar    1  UNL1        0.1721
     21 C          10.4138  -31.7195   13.9241 C.3     1  UNL1        0.2526
     22 O          11.0851  -30.8430   13.0168 O.3     1  UNL1       -0.4684
     23 O          13.5983  -30.4843   14.0856 O.3     1  UNL1       -0.4684
     24 C          14.2325  -30.7382   15.3408 C.3     1  UNL1        0.2526
     25 S          19.1853  -25.0650   17.0436 S.3     1  UNL1       -0.0673
     26 C          19.3942  -23.3701   17.6436 C.3     1  UNL1        0.1340
     27 C          20.6147  -22.7582   17.0055 C.2     1  UNL1        0.1844
     28 O          21.5799  -23.4493   16.7566 O.2     1  UNL1       -0.2904
     29 C          20.6353  -21.3252   16.6850 C.ar    1  UNL1        0.0388
     30 C          19.8447  -20.4306   17.4164 C.ar    1  UNL1        0.0062
     31 C          19.8616  -19.0885   17.1101 C.ar    1  UNL1        0.0399
     32 C          20.6706  -18.6166   16.0840 C.ar    1  UNL1        0.1675
     33 C          21.4658  -19.5005   15.3546 C.ar    1  UNL1        0.1676
     34 C          21.4505  -20.8486   15.6509 C.ar    1  UNL1        0.0426
     35 O          22.2562  -19.0339   14.3511 O.3     1  UNL1       -0.5029
     36 O          20.6876  -17.2912   15.7908 O.3     1  UNL1       -0.5029
     37 H          22.2667  -18.1189   14.1499 H       1  UNL1        0.2923
     38 H          20.1539  -16.6964   16.2799 H       1  UNL1        0.2923
@<TRIPOS>BOND
     1    21    22    1
     2    22    15    1
     3    15    20   ar
     4    15    16   ar
     5    16    17   ar
     6    17    18   ar
     7    18    19   ar
     8    18    14    1
     9    19    20   ar
    10    20    23    1
    11    23    24    1
    12    14    13    1
    13    13    11    1
    14    11     1    1
    15     1    10   ar
    16     1     2   ar
    17     2     7   ar
    18     2     3   ar
    19     3     4   ar
    20     4     5   ar
    21     5     6   ar
    22     6     7   ar
    23     7     8   ar
    24     8     9   ar
    25     9    10   ar
    26     9    25    1
    27    25    26    1
    28    26    27    1
    29    27    28    2
    30    27    29    1
    31    29    34   ar
    32    29    30   ar
    33    30    31   ar
    34    31    32   ar
    35    32    33   ar
    36    32    36    1
    37    33    34   ar
    38    33    35    1
    39    11    12    1
    40    35    37    1
    41    36    38    1
#	Name:			ZINC02948818
#	Creating user name:	trannguyen
#	Creation time:		Wed Dec  7 14:36:19 2022


#	Modifying user name:	trannguyen
#	Modification time:	Wed Dec  7 14:36:19 2022

@<TRIPOS>MOLECULE
ZINC02948818
 38 42 0 0 0
SMALL
GASTEIGER

@<TRIPOS>ATOM
      1 C          18.8196  -25.8858   15.3644 C.ar    1  UNL1        0.1915
      2 N          19.2493  -25.5702   14.1567 N.ar    1  UNL1       -0.2211
      3 C          18.4177  -25.0118   13.2650 C.ar    1  UNL1        0.0861
      4 C          18.8390  -24.6687   11.9729 C.ar    1  UNL1        0.0193
      5 C          17.9551  -24.0977   11.1061 C.ar    1  UNL1        0.0015
      6 C          16.6388  -23.8494   11.4840 C.ar    1  UNL1        0.0002
      7 C          16.1963  -24.1710   12.7338 C.ar    1  UNL1        0.0043
      8 C          17.0779  -24.7583   13.6473 C.ar    1  UNL1        0.0491
      9 C          16.6745  -25.1132   14.9590 C.ar    1  UNL1        0.1323
     10 N          17.5700  -25.6650   15.7642 N.ar    1  UNL1       -0.2064
     11 N          15.3828  -24.8902   15.3856 N.pl3   1  UNL1       -0.3144
     12 H          14.9519  -24.0211   15.2174 H       1  UNL1        0.1485
     13 C          14.6513  -25.9465   16.0895 C.3     1  UNL1        0.1154
     14 C          13.6606  -26.5836   15.1495 C.ar    1  UNL1       -0.0024
     15 C          14.1094  -27.3400   14.0827 C.ar    1  UNL1        0.0005
     16 C          13.2031  -27.9297   13.2228 C.ar    1  UNL1        0.0366
     17 C          11.8418  -27.7532   13.4240 C.ar    1  UNL1        0.1387
     18 C          11.3942  -26.9891   14.4919 C.ar    1  UNL1        0.0366
     19 C          12.3044  -26.4062   15.3521 C.ar    1  UNL1        0.0005
     20 O          10.9484  -28.3281   12.5765 O.3     1  UNL1       -0.4714
     21 C           9.5625  -28.1290   12.8621 C.3     1  UNL1        0.2525
     22 S          19.9502  -26.6241   16.4964 S.3     1  UNL1       -0.0672
     23 C          20.0330  -25.3228   17.7517 C.3     1  UNL1        0.1311
     24 C          20.5500  -24.0532   17.1258 C.2     1  UNL1        0.2362
     25 O          21.7445  -23.8557   17.0528 O.2     1  UNL1       -0.2739
     26 N          19.6850  -23.1372   16.6469 N.am    1  UNL1       -0.2831
     27 H          18.7158  -23.2717   16.7550 H       1  UNL1        0.1549
     28 C          20.1652  -21.9937   15.9954 C.ar    1  UNL1        0.0536
     29 C          20.1111  -21.9094   14.6106 C.ar    1  UNL1        0.0180
     30 C          20.5792  -20.7799   13.9669 C.ar    1  UNL1        0.0415
     31 C          21.1138  -19.7330   14.7003 C.ar    1  UNL1        0.1765
     32 C          21.1748  -19.8170   16.0893 C.ar    1  UNL1        0.1777
     33 C          20.7003  -20.9473   16.7338 C.ar    1  UNL1        0.0548
     34 O          21.7376  -18.6707   16.5716 O.3     1  UNL1       -0.4346
     35 C          22.3931  -18.0602   15.4443 C.3     1  UNL1        0.4294
     36 O          21.6388  -18.5330   14.3127 O.3     1  UNL1       -0.4346
     37 C          20.2332  -25.7059   20.2125 C.3     1  UNL1        0.0014
     38 C          20.9756  -25.7577   18.8757 C.3     1  UNL1        0.0205
@<TRIPOS>BOND
     1    37    38    1
     2    38    23    1
     3    23    24    1
     4    23    22    1
     5    24    25    2
     6    24    26   am
     7    26    28    1
     8    28    33   ar
     9    28    29   ar
    10    29    30   ar
    11    30    31   ar
    12    31    36    1
    13    31    32   ar
    14    32    33   ar
    15    32    34    1
    16    34    35    1
    17    35    36    1
    18    22     1    1
    19     1    10   ar
    20     1     2   ar
    21     2     3   ar
    22     3     8   ar
    23     3     4   ar
    24     4     5   ar
    25     5     6   ar
    26     6     7   ar
    27     7     8   ar
    28     8     9   ar
    29     9    10   ar
    30     9    11    1
    31    11    13    1
    32    13    14    1
    33    14    19   ar
    34    14    15   ar
    35    15    16   ar
    36    16    17   ar
    37    17    18   ar
    38    17    20    1
    39    18    19   ar
    40    20    21    1
    41    26    27    1
    42    11    12    1
#	Name:			ZINC02948891
#	Creating user name:	trannguyen
#	Creation time:		Wed Dec  7 14:36:20 2022


#	Modifying user name:	trannguyen
#	Modification time:	Wed Dec  7 14:36:20 2022

@<TRIPOS>MOLECULE
ZINC02948891
 38 41 0 0 0
SMALL
GASTEIGER

@<TRIPOS>ATOM
      1 C          17.6418  -24.9423   16.0645 C.ar    1  UNL1        0.1916
      2 N          18.4621  -24.6213   15.0812 N.ar    1  UNL1       -0.2211
      3 C          17.9831  -24.3570   13.8568 C.ar    1  UNL1        0.0861
      4 C          18.8255  -24.0180   12.7890 C.ar    1  UNL1        0.0193
      5 C          18.2873  -23.7525   11.5648 C.ar    1  UNL1        0.0015
      6 C          16.9123  -23.8133   11.3576 C.ar    1  UNL1        0.0002
      7 C          16.0642  -24.1397   12.3753 C.ar    1  UNL1        0.0043
      8 C          16.5843  -24.4178   13.6437 C.ar    1  UNL1        0.0494
      9 C          15.7519  -24.7622   14.7380 C.ar    1  UNL1        0.1357
     10 N          16.3224  -25.0108   15.9078 N.ar    1  UNL1       -0.2061
     11 N          14.3830  -24.8373   14.5890 N.pl3   1  UNL1       -0.2977
     12 H          13.8797  -24.0561   14.2638 H       1  UNL1        0.1536
     13 C          13.7090  -26.0240   14.8999 C.ar    1  UNL1        0.0557
     14 C          12.7328  -26.0292   15.8872 C.ar    1  UNL1        0.0549
     15 C          12.0611  -27.2028   16.1917 C.ar    1  UNL1        0.1767
     16 C          12.3727  -28.3767   15.5163 C.ar    1  UNL1        0.2061
     17 C          13.3539  -28.3719   14.5320 C.ar    1  UNL1        0.1767
     18 C          14.0209  -27.1964   14.2248 C.ar    1  UNL1        0.0549
     19 O          13.6599  -29.5202   13.8710 O.3     1  UNL1       -0.4682
     20 C          12.9581  -29.7740   12.6523 C.3     1  UNL1        0.2526
     21 O          11.7167  -29.5312   15.8184 O.3     1  UNL1       -0.4654
     22 C          12.3112  -30.3758   16.8060 C.3     1  UNL1        0.2528
     23 O          11.1007  -27.2065   17.1545 O.3     1  UNL1       -0.4682
     24 C          11.5321  -27.0053   18.5019 C.3     1  UNL1        0.2526
     25 S          18.3224  -25.2876   17.6528 S.3     1  UNL1       -0.0658
     26 C          20.0879  -25.2083   17.2622 C.3     1  UNL1        0.1498
     27 N          19.8800  -22.7467   17.3883 N.am    1  UNL1       -0.2997
     28 C          20.6220  -23.8466   17.6250 C.2     1  UNL1        0.2342
     29 O          21.7195  -23.7405   18.1300 O.2     1  UNL1       -0.2741
     30 H          18.9891  -22.8328   16.9782 H       1  UNL1        0.1498
     31 C          20.3990  -21.4230   17.7410 C.3     1  UNL1        0.1163
     32 C          21.6592  -18.5002   12.9179 C.3     1  UNL1        0.0310
     33 C          21.3306  -19.2624   14.1757 C.ar    1  UNL1       -0.0219
     34 C          21.6191  -18.7141   15.4115 C.ar    1  UNL1       -0.0045
     35 C          21.3173  -19.4131   16.5652 C.ar    1  UNL1       -0.0029
     36 C          20.7271  -20.6604   16.4832 C.ar    1  UNL1       -0.0026
     37 C          20.4382  -21.2086   15.2475 C.ar    1  UNL1       -0.0029
     38 C          20.7391  -20.5091   14.0937 C.ar    1  UNL1       -0.0045
@<TRIPOS>BOND
     1    32    33    1
     2    33    38   ar
     3    33    34   ar
     4    34    35   ar
     5    35    36   ar
     6    36    37   ar
     7    36    31    1
     8    37    38   ar
     9    31    27    1
    10    27    28   am
    11    28    29    2
    12    28    26    1
    13    26    25    1
    14    25     1    1
    15     1    10   ar
    16     1     2   ar
    17     2     3   ar
    18     3     8   ar
    19     3     4   ar
    20     4     5   ar
    21     5     6   ar
    22     6     7   ar
    23     7     8   ar
    24     8     9   ar
    25     9    10   ar
    26     9    11    1
    27    11    13    1
    28    13    18   ar
    29    13    14   ar
    30    14    15   ar
    31    15    16   ar
    32    15    23    1
    33    16    17   ar
    34    16    21    1
    35    17    18   ar
    36    17    19    1
    37    19    20    1
    38    21    22    1
    39    23    24    1
    40    27    30    1
    41    11    12    1
#	Name:			ZINC02968854
#	Creating user name:	trannguyen
#	Creation time:		Wed Dec  7 14:36:20 2022


#	Modifying user name:	trannguyen
#	Modification time:	Wed Dec  7 14:36:20 2022

@<TRIPOS>MOLECULE
ZINC02968854
 45 50 0 0 0
SMALL
GASTEIGER

@<TRIPOS>ATOM
      1 C          21.9540  -24.9152   13.8500 C.ar    1  UNL1        0.1611
      2 N          20.7135  -24.4783   13.6518 N.ar    1  UNL1       -0.2100
      3 C          19.8714  -25.1976   14.3627 C.ar    1  UNL1        0.1686
      4 C          18.4167  -25.1906   14.5515 C.ar    1  UNL1        0.0536
      5 C          17.5903  -24.2766   13.9013 C.ar    1  UNL1        0.0046
      6 C          16.2303  -24.3183   14.1186 C.ar    1  UNL1        0.0002
      7 C          15.6815  -25.2619   14.9771 C.ar    1  UNL1        0.0015
      8 C          16.4734  -26.1677   15.6244 C.ar    1  UNL1        0.0193
      9 C          17.8567  -26.1503   15.4256 C.ar    1  UNL1        0.0864
     10 N          18.6712  -27.0362   16.0473 N.ar    1  UNL1       -0.2210
     11 C          19.9682  -27.0261   15.8725 C.ar    1  UNL1        0.1931
     12 N          20.5975  -26.1349   15.0462 N.ar    1  UNL1       -0.1881
     13 N          21.9354  -25.9207   14.6896 N.ar    1  UNL1       -0.1471
     14 C          23.1909  -24.3414   13.2081 C.3     1  UNL1        0.0723
     15 C          24.2825  -25.4121   13.1569 C.3     1  UNL1        0.0359
     16 C          23.0091  -29.1648   10.6529 C.ar    1  UNL1        0.0001
     17 C          23.4590  -29.1173    9.3404 C.ar    1  UNL1        0.0015
     18 C          24.1923  -28.0428    8.8876 C.ar    1  UNL1        0.0170
     19 C          24.4961  -26.9987    9.7554 C.ar    1  UNL1        0.0563
     20 C          24.0402  -27.0529   11.0850 C.ar    1  UNL1        0.0131
     21 C          23.2921  -28.1482   11.5208 C.ar    1  UNL1        0.0012
     22 C          24.5152  -25.8243   11.7261 C.ar    1  UNL1       -0.0034
     23 C          25.2017  -25.1381   10.7991 C.ar    1  UNL1        0.0681
     24 N          25.2011  -25.8243    9.6152 N.ar    1  UNL1       -0.3523
     25 H          25.6395  -25.5232    8.7867 H       1  UNL1        0.1660
     26 S          20.9448  -28.2147   16.7318 S.3     1  UNL1       -0.0658
     27 C          20.6891  -27.6593   18.4353 C.3     1  UNL1        0.1498
     28 C          20.8037  -26.1580   18.4969 C.2     1  UNL1        0.2339
     29 O          21.8852  -25.6262   18.3604 O.2     1  UNL1       -0.2741
     30 N          19.7044  -25.4062   18.7035 N.am    1  UNL1       -0.3033
     31 H          18.8265  -25.8378   18.8143 H       1  UNL1        0.1495
     32 C          19.8158  -23.9466   18.7633 C.3     1  UNL1        0.0941
     33 C          19.0002  -23.3258   17.6274 C.3     1  UNL1        0.0476
     34 C          19.6902  -22.0792   17.1366 C.ar    1  UNL1       -0.0204
     35 C          20.5269  -22.1394   16.0378 C.ar    1  UNL1       -0.0028
     36 C          21.1564  -20.9951   15.5850 C.ar    1  UNL1        0.0196
     37 C          20.9562  -19.7923   16.2362 C.ar    1  UNL1        0.1217
     38 C          20.1235  -19.7331   17.3381 C.ar    1  UNL1        0.0196
     39 C          19.4906  -20.8766   17.7884 C.ar    1  UNL1       -0.0028
     40 S          21.7620  -18.3345   15.6615 S.O2    1  UNL1        0.0572
     41 O          22.8765  -18.1224   16.5171 O.2     1  UNL1       -0.1532
     42 O          21.8978  -18.4737   14.2539 O.2     1  UNL1       -0.1532
     43 N          20.7238  -17.0693   15.9141 N.3     1  UNL1       -0.2035
     44 H          20.5945  -16.9305   16.9163 H       1  UNL1        0.1442
     45 H          19.8239  -17.2761   15.4807 H       1  UNL1        0.1442
@<TRIPOS>BOND
     1    16    21   ar
     2    16    17   ar
     3    17    18   ar
     4    18    19   ar
     5    19    24   ar
     6    19    20   ar
     7    20    21   ar
     8    20    22   ar
     9    22    23   ar
    10    22    15    1
    11    23    24   ar
    12    15    14    1
    13    14     1    1
    14     1    13   ar
    15     1     2   ar
    16     2     3   ar
    17     3    12   ar
    18     3     4   ar
    19     4     9   ar
    20     4     5   ar
    21     5     6   ar
    22     6     7   ar
    23     7     8   ar
    24     8     9   ar
    25     9    10   ar
    26    10    11   ar
    27    11    12   ar
    28    11    26    1
    29    12    13   ar
    30    26    27    1
    31    27    28    1
    32    28    29    2
    33    28    30   am
    34    30    32    1
    35    32    33    1
    36    33    34    1
    37    34    39   ar
    38    34    35   ar
    39    35    36   ar
    40    36    37   ar
    41    37    38   ar
    42    37    40    1
    43    38    39   ar
    44    40    41    2
    45    40    42    2
    46    40    43    1
    47    24    25    1
    48    30    31    1
    49    43    44    1
    50    43    45    1
#	Name:			ZINC02975721
#	Creating user name:	trannguyen
#	Creation time:		Wed Dec  7 14:36:19 2022


#	Modifying user name:	trannguyen
#	Modification time:	Wed Dec  7 14:36:19 2022

@<TRIPOS>MOLECULE
ZINC02975721
 44 47 0 0 0
SMALL
GASTEIGER

@<TRIPOS>ATOM
      1 C          19.9606  -26.6669   14.7284 C.ar    1  UNL1        0.1739
      2 N          20.1620  -27.5644   13.7961 N.ar    1  UNL1       -0.2223
      3 C          21.2386  -27.5040   12.9753 C.ar    1  UNL1        0.0912
      4 C          21.4517  -28.4620   11.9824 C.ar    1  UNL1        0.0593
      5 C          22.5609  -28.3667   11.1655 C.ar    1  UNL1        0.1739
      6 C          23.4748  -27.3188   11.3225 C.ar    1  UNL1        0.1726
      7 C          23.2811  -26.3636   12.2972 C.ar    1  UNL1        0.0463
      8 C          22.1640  -26.4463   13.1312 C.ar    1  UNL1        0.0771
      9 C          21.9127  -25.4554   14.1840 C.ar    1  UNL1        0.2638
     10 O          22.6738  -24.5227   14.3667 O.2     1  UNL1       -0.2669
     11 N          20.8054  -25.6154   14.9445 N.ar    1  UNL1       -0.2753
     12 O          24.5614  -27.2420   10.5075 O.3     1  UNL1       -0.4684
     13 C          25.8055  -27.7011   11.0400 C.3     1  UNL1        0.2526
     14 O          22.7669  -29.2995   10.2000 O.3     1  UNL1       -0.4683
     15 C          22.4873  -30.6587   10.5409 C.3     1  UNL1        0.2526
     16 S          18.5346  -26.8232   15.7515 S.3     1  UNL1       -0.0688
     17 C          17.3094  -25.9897   14.7123 C.3     1  UNL1        0.1311
     18 C          15.9814  -26.6906   14.8408 C.2     1  UNL1        0.2362
     19 O          15.9330  -27.8242   15.2692 O.2     1  UNL1       -0.2739
     20 N          14.8477  -26.0576   14.4797 N.am    1  UNL1       -0.2832
     21 H          14.8787  -25.1150   14.1974 H       1  UNL1        0.1549
     22 C          13.6265  -26.7404   14.5060 C.ar    1  UNL1        0.0503
     23 C          12.8135  -26.6690   15.6295 C.ar    1  UNL1        0.0143
     24 C          11.6061  -27.3393   15.6501 C.ar    1  UNL1       -0.0030
     25 C          11.2121  -28.0907   14.5582 C.ar    1  UNL1       -0.0218
     26 C          12.0219  -28.1681   13.4399 C.ar    1  UNL1       -0.0030
     27 C          13.2277  -27.4955   13.4108 C.ar    1  UNL1        0.0143
     28 C           9.8972  -28.8263   14.5867 C.3     1  UNL1        0.0310
     29 C          17.5018  -24.6711   12.5989 C.3     1  UNL1        0.0014
     30 C          17.7674  -26.0284   13.2530 C.3     1  UNL1        0.0205
     31 C          20.5101  -24.6533   16.0091 C.3     1  UNL1        0.1156
     32 C          19.4510  -23.6625   15.5217 C.3     1  UNL1        0.0510
     33 C          20.0145  -22.2654   15.5602 C.ar    1  UNL1       -0.0202
     34 C          20.0463  -21.5655   16.7518 C.ar    1  UNL1       -0.0028
     35 C          20.5672  -20.2855   16.7879 C.ar    1  UNL1        0.0196
     36 C          21.0481  -19.7021   15.6306 C.ar    1  UNL1        0.1217
     37 C          21.0114  -20.4001   14.4380 C.ar    1  UNL1        0.0196
     38 C          20.4945  -21.6816   14.4027 C.ar    1  UNL1       -0.0028
     39 S          21.7081  -18.0690   15.6759 S.O2    1  UNL1        0.0572
     40 O          20.6525  -17.2158   16.0965 O.2     1  UNL1       -0.1532
     41 O          22.9451  -18.1501   16.3706 O.2     1  UNL1       -0.1532
     42 N          22.0681  -17.6430   14.1166 N.3     1  UNL1       -0.2035
     43 H          21.2062  -17.5721   13.5758 H       1  UNL1        0.1442
     44 H          22.6726  -18.3520   13.7013 H       1  UNL1        0.1442
@<TRIPOS>BOND
     1    29    30    1
     2    30    17    1
     3    17    18    1
     4    17    16    1
     5    18    19    2
     6    18    20   am
     7    20    22    1
     8    22    27   ar
     9    22    23   ar
    10    23    24   ar
    11    24    25   ar
    12    25    26   ar
    13    25    28    1
    14    26    27   ar
    15    16     1    1
    16     1    11   ar
    17     1     2   ar
    18     2     3   ar
    19     3     8   ar
    20     3     4   ar
    21     4     5   ar
    22     5     6   ar
    23     5    14    1
    24     6     7   ar
    25     6    12    1
    26     7     8   ar
    27     8     9   ar
    28     9    10    2
    29     9    11   ar
    30    11    31    1
    31    31    32    1
    32    32    33    1
    33    33    38   ar
    34    33    34   ar
    35    34    35   ar
    36    35    36   ar
    37    36    37   ar
    38    36    39    1
    39    37    38   ar
    40    39    40    2
    41    39    41    2
    42    39    42    1
    43    12    13    1
    44    14    15    1
    45    20    21    1
    46    42    43    1
    47    42    44    1
#	Name:			ZINC03031896
#	Creating user name:	trannguyen
#	Creation time:		Wed Dec  7 14:36:20 2022


#	Modifying user name:	trannguyen
#	Modification time:	Wed Dec  7 14:36:20 2022

@<TRIPOS>MOLECULE
ZINC03031896
 35 38 0 0 0
SMALL
GASTEIGER

@<TRIPOS>ATOM
      1 N          20.8685  -23.6752   13.5443 N.2     1  UNL1       -0.1776
      2 C          21.2201  -22.6598   12.8169 C.2     1  UNL1        0.1177
      3 C          21.3800  -21.3301   13.4349 C.ar    1  UNL1        0.0237
      4 C          21.5067  -20.1939   12.6316 C.ar    1  UNL1        0.0018
      5 C          21.6560  -18.9522   13.2133 C.ar    1  UNL1        0.0032
      6 C          21.6809  -18.8271   14.5904 C.ar    1  UNL1        0.0376
      7 C          21.5561  -19.9502   15.3973 C.ar    1  UNL1        0.1488
      8 C          21.4109  -21.2026   14.8246 C.ar    1  UNL1        0.0392
      9 O          21.5821  -19.8208   16.7500 O.3     1  UNL1       -0.4210
     10 C          20.5589  -20.3463   17.4568 C.2     1  UNL1        0.3460
     11 O          19.4619  -19.8200   17.4224 O.2     1  UNL1       -0.2445
     12 C          20.7615  -21.5069   18.2362 C.2     1  UNL1        0.0854
     13 C          20.2302  -22.6919   17.8400 C.2     1  UNL1        0.0442
     14 C          20.4331  -23.8547   18.6208 C.ar    1  UNL1        0.1458
     15 C          19.4850  -24.4876   19.3986 C.ar    1  UNL1        0.0407
     16 C          20.1235  -25.5884   19.9890 C.ar    1  UNL1        0.0438
     17 C          21.4051  -25.5852   19.5594 C.ar    1  UNL1        0.1796
     18 O          21.5882  -24.5426   18.7377 O.2     1  UNL1       -0.4504
     19 C          21.5356  -25.9485   13.3109 C.2     1  UNL1        0.2611
     20 O          22.4044  -25.7642   14.1373 O.2     1  UNL1       -0.2715
     21 N          20.7166  -24.9382   12.9574 N.am    1  UNL1       -0.2044
     22 H          20.0116  -25.0877   12.2867 H       1  UNL1        0.1773
     23 C          21.3721  -27.3071   12.6796 C.3     1  UNL1        0.1754
     24 N          22.6876  -27.9303   12.5144 N.pl3   1  UNL1       -0.3252
     25 H          23.3542  -27.8719   13.2366 H       1  UNL1        0.1473
     26 C          25.3312  -26.8059    8.3663 C.ar    1  UNL1        0.0000
     27 C          25.0346  -26.1123    9.5380 C.ar    1  UNL1        0.0000
     28 C          24.2757  -26.6805   10.5153 C.ar    1  UNL1        0.0012
     29 C          23.7794  -27.9819   10.3412 C.ar    1  UNL1        0.0131
     30 C          24.0847  -28.6900    9.1527 C.ar    1  UNL1        0.0012
     31 C          24.8709  -28.0709    8.1655 C.ar    1  UNL1        0.0000
     32 C          23.5928  -29.9947    8.9793 C.ar    1  UNL1        0.0001
     33 C          22.8339  -30.5704    9.9524 C.ar    1  UNL1        0.0013
     34 C          22.5321  -29.8874   11.1266 C.ar    1  UNL1        0.0143
     35 C          22.9954  -28.6056   11.3353 C.ar    1  UNL1        0.0449
@<TRIPOS>BOND
     1    26    31   ar
     2    26    27   ar
     3    27    28   ar
     4    28    29   ar
     5    29    35   ar
     6    29    30   ar
     7    30    31   ar
     8    30    32   ar
     9    32    33   ar
    10    33    34   ar
    11    34    35   ar
    12    35    24    1
    13    24    23    1
    14    23    19    1
    15    19    20    2
    16    19    21   am
    17    21     1    1
    18     1     2    2
    19     2     3    1
    20     3     8   ar
    21     3     4   ar
    22     4     5   ar
    23     5     6   ar
    24     6     7   ar
    25     7     8   ar
    26     7     9    1
    27     9    10    1
    28    10    11    2
    29    10    12    1
    30    12    13    2
    31    13    14    1
    32    14    18   ar
    33    14    15   ar
    34    15    16   ar
    35    16    17   ar
    36    17    18   ar
    37    24    25    1
    38    21    22    1
#	Name:			ZINC03053843
#	Creating user name:	trannguyen
#	Creation time:		Wed Dec  7 14:36:20 2022


#	Modifying user name:	trannguyen
#	Modification time:	Wed Dec  7 14:36:20 2022

@<TRIPOS>MOLECULE
ZINC03053843
 34 37 0 0 0
SMALL
GASTEIGER

@<TRIPOS>ATOM
      1 C          21.3134  -27.0348   13.1765 C.ar    1  UNL1        0.1323
      2 C          21.3274  -26.6741   14.5314 C.ar    1  UNL1        0.0389
      3 C          20.3974  -25.7604   15.0029 C.ar    1  UNL1        0.0576
      4 C          19.4389  -25.2188   14.0384 C.ar    1  UNL1        0.0222
      5 C          18.4621  -24.2924   14.4193 C.ar    1  UNL1        0.0016
      6 C          17.5891  -23.8130   13.4880 C.ar    1  UNL1        0.0001
      7 C          17.6575  -24.2351   12.1625 C.ar    1  UNL1        0.0015
      8 C          18.5956  -25.1357   11.7594 C.ar    1  UNL1        0.0191
      9 C          19.5131  -25.6514   12.6918 C.ar    1  UNL1        0.0828
     10 N          20.4445  -26.5367   12.3256 N.ar    1  UNL1       -0.2306
     11 C          20.3737  -25.3504   16.4241 C.2     1  UNL1        0.2460
     12 O          19.6762  -25.9506   17.2182 O.2     1  UNL1       -0.2701
     13 N          21.1255  -24.3113   16.8383 N.am    1  UNL1       -0.3008
     14 H          21.6904  -23.8252   16.1952 H       1  UNL1        0.1497
     15 C          21.1020  -23.9054   18.2458 C.3     1  UNL1        0.0906
     16 C          20.1142  -22.7510   18.4271 C.3     1  UNL1        0.0329
     17 C          20.8679  -21.4208   18.3673 C.3     1  UNL1        0.0593
     18 S          19.9717  -20.2658   17.2934 S.3     1  UNL1       -0.1411
     19 C          20.9896  -20.1807   15.7942 C.3     1  UNL1        0.0476
     20 C          20.8372  -18.8003   15.1523 C.3     1  UNL1        0.0108
     21 C          21.6957  -18.7285   13.8878 C.3     1  UNL1        0.0009
     22 C          21.2393  -19.8037   12.8997 C.3     1  UNL1        0.0001
     23 C          21.3916  -21.1841   13.5418 C.3     1  UNL1        0.0009
     24 C          20.5330  -21.2559   14.8062 C.3     1  UNL1        0.0108
     25 N          22.2465  -27.9544   12.7190 N.pl3   1  UNL1       -0.2956
     26 H          22.2927  -28.8511   13.1227 H       1  UNL1        0.1537
     27 C          23.0823  -28.2973   10.4738 C.ar    1  UNL1        0.1520
     28 C          23.9512  -27.9492    9.4527 C.ar    1  UNL1        0.0382
     29 C          24.8550  -26.9187    9.6347 C.ar    1  UNL1        0.0032
     30 C          24.8952  -26.2332   10.8349 C.ar    1  UNL1        0.0015
     31 C          24.0282  -26.5706   11.8568 C.ar    1  UNL1        0.0177
     32 C          23.1221  -27.6070   11.6834 C.ar    1  UNL1        0.0838
     33 C          22.7106  -30.6414   10.3230 C.3     1  UNL1        0.2525
     34 O          22.1923  -29.3101   10.2959 O.3     1  UNL1       -0.4702
@<TRIPOS>BOND
     1    33    34    1
     2    34    27    1
     3    27    32   ar
     4    27    28   ar
     5    28    29   ar
     6    29    30   ar
     7    30    31   ar
     8    31    32   ar
     9    32    25    1
    10    25     1    1
    11     1    10   ar
    12     1     2   ar
    13     2     3   ar
    14     3     4   ar
    15     3    11    1
    16     4     9   ar
    17     4     5   ar
    18     5     6   ar
    19     6     7   ar
    20     7     8   ar
    21     8     9   ar
    22     9    10   ar
    23    11    12    2
    24    11    13   am
    25    13    15    1
    26    15    16    1
    27    16    17    1
    28    17    18    1
    29    18    19    1
    30    19    24    1
    31    19    20    1
    32    20    21    1
    33    21    22    1
    34    22    23    1
    35    23    24    1
    36    25    26    1
    37    13    14    1
#	Name:			ZINC03079739
#	Creating user name:	trannguyen
#	Creation time:		Wed Dec  7 14:36:20 2022


#	Modifying user name:	trannguyen
#	Modification time:	Wed Dec  7 14:36:20 2022

@<TRIPOS>MOLECULE
ZINC03079739
 43 46 0 0 0
SMALL
GASTEIGER

@<TRIPOS>ATOM
      1 C          15.3249  -26.6609   16.7337 C.2     1  UNL1        0.2781
      2 O          16.4316  -27.1265   16.9346 O.2     1  UNL1       -0.2670
      3 N          15.1873  -25.5495   15.9839 N.am    1  UNL1       -0.2013
      4 H          14.2889  -25.2116   15.7647 H       1  UNL1        0.1776
      5 C          13.9810  -27.3605   18.6527 C.2     1  UNL1        0.0194
      6 C          14.1407  -27.3098   17.3080 C.2     1  UNL1        0.1063
      7 C          10.3669  -28.8440   20.3035 C.ar    1  UNL1        0.0479
      8 C          10.4921  -27.4885   20.0131 C.ar    1  UNL1        0.0145
      9 C          11.6631  -27.0026   19.4776 C.ar    1  UNL1        0.0013
     10 C          12.7294  -27.8743   19.2248 C.ar    1  UNL1        0.0015
     11 C          12.5970  -29.2381   19.5134 C.ar    1  UNL1        0.0013
     12 C          11.4241  -29.7142   20.0534 C.ar    1  UNL1        0.0145
     13 C           8.6502  -28.7564   22.0844 C.3     1  UNL1        0.1122
     14 N           9.1800  -29.3312   20.8454 N.pl3   1  UNL1       -0.3041
     15 C           8.4612  -30.4184   20.1763 C.3     1  UNL1        0.1122
     16 N          13.1764  -27.8763   16.4670 N.am    1  UNL1       -0.2768
     17 C          12.2218  -27.0998   15.9175 C.2     1  UNL1        0.2496
     18 O          12.2533  -25.8945   16.0747 O.2     1  UNL1       -0.2698
     19 H          13.1953  -28.8421   16.2769 H       1  UNL1        0.1553
     20 C          11.1364  -27.7133   15.1235 C.ar    1  UNL1        0.0537
     21 C          10.2413  -28.5988   15.7264 C.ar    1  UNL1        0.0045
     22 C           9.2270  -29.1634   14.9811 C.ar    1  UNL1        0.0001
     23 C           9.1025  -28.8624   13.6363 C.ar    1  UNL1        0.0000
     24 C           9.9900  -27.9903   13.0312 C.ar    1  UNL1        0.0001
     25 C          11.0054  -27.4143   13.7664 C.ar    1  UNL1        0.0045
     26 N          16.3227  -24.8749   15.5164 N.2     1  UNL1       -0.1773
     27 C          16.5513  -24.7955   14.2411 C.2     1  UNL1        0.1177
     28 C          17.7464  -24.0855   13.7491 C.ar    1  UNL1        0.0237
     29 C          17.6838  -23.3421   12.5675 C.ar    1  UNL1        0.0018
     30 C          18.8027  -22.6754   12.1131 C.ar    1  UNL1        0.0032
     31 C          19.9905  -22.7486   12.8177 C.ar    1  UNL1        0.0376
     32 C          20.0643  -23.4889   13.9900 C.ar    1  UNL1        0.1488
     33 C          18.9464  -24.1581   14.4588 C.ar    1  UNL1        0.0392
     34 O          21.2347  -23.5572   14.6776 O.3     1  UNL1       -0.4210
     35 C          21.2482  -23.0276   15.9163 C.2     1  UNL1        0.3458
     36 O          21.4587  -23.7385   16.8786 O.2     1  UNL1       -0.2445
     37 C          21.0069  -21.5824   16.1043 C.ar    1  UNL1        0.0783
     38 C          20.0582  -21.1446   17.0308 C.ar    1  UNL1        0.0066
     39 C          19.8370  -19.7940   17.2023 C.ar    1  UNL1        0.0025
     40 C          20.5526  -18.8720   16.4594 C.ar    1  UNL1        0.0296
     41 C          21.4957  -19.2983   15.5380 C.ar    1  UNL1        0.1404
     42 C          21.7304  -20.6486   15.3606 C.ar    1  UNL1        0.0361
     43 F          22.1911  -18.3922   14.8164 F       1  UNL1       -0.2042
@<TRIPOS>BOND
     1    13    14    1
     2    14    15    1
     3    14     7    1
     4     7    12   ar
     5     7     8   ar
     6     8     9   ar
     7     9    10   ar
     8    10    11   ar
     9    10     5    1
    10    11    12   ar
    11     5     6    2
    12     6     1    1
    13     6    16    1
    14     1     2    2
    15     1     3   am
    16     3    26    1
    17    26    27    2
    18    27    28    1
    19    28    33   ar
    20    28    29   ar
    21    29    30   ar
    22    30    31   ar
    23    31    32   ar
    24    32    33   ar
    25    32    34    1
    26    34    35    1
    27    35    36    2
    28    35    37    1
    29    37    42   ar
    30    37    38   ar
    31    38    39   ar
    32    39    40   ar
    33    40    41   ar
    34    41    42   ar
    35    41    43    1
    36    16    17   am
    37    17    18    2
    38    17    20    1
    39    20    25   ar
    40    20    21   ar
    41    21    22   ar
    42    22    23   ar
    43    23    24   ar
    44    24    25   ar
    45     3     4    1
    46    16    19    1
#	Name:			ZINC03088978
#	Creating user name:	trannguyen
#	Creation time:		Wed Dec  7 14:36:19 2022


#	Modifying user name:	trannguyen
#	Modification time:	Wed Dec  7 14:36:19 2022

@<TRIPOS>MOLECULE
ZINC03088978
 45 48 0 0 0
SMALL
GASTEIGER

@<TRIPOS>ATOM
      1 C          14.8875  -26.3092   15.4167 C.3     1  UNL1        0.0526
      2 C          12.5124  -28.4345   13.3758 C.ar    1  UNL1        0.0541
      3 C          13.6761  -27.9610   13.9863 C.ar    1  UNL1        0.0007
      4 C          13.6302  -26.8230   14.7639 C.ar    1  UNL1       -0.0175
      5 C          12.4328  -26.1537   14.9517 C.ar    1  UNL1       -0.0008
      6 C          11.2734  -26.6153   14.3578 C.ar    1  UNL1        0.0364
      7 C          11.3026  -27.7536   13.5688 C.ar    1  UNL1        0.1351
      8 O          10.1637  -28.2082   12.9852 O.3     1  UNL1       -0.5055
      9 H          10.1857  -28.9784   12.4519 H       1  UNL1        0.2922
     10 N          11.6627  -30.5759   12.6958 N.2     1  UNL1       -0.1772
     11 C          12.5553  -29.6464   12.5386 C.2     1  UNL1        0.1206
     12 C          12.1704  -32.8843   12.4113 C.2     1  UNL1        0.2674
     13 O          12.5564  -32.9275   13.5639 O.2     1  UNL1       -0.2683
     14 N          11.7034  -31.7281   11.8998 N.am    1  UNL1       -0.2022
     15 H          11.3910  -31.6932   10.9668 H       1  UNL1        0.1776
     16 C          13.1399  -34.1984   10.5265 C.ar    1  UNL1        0.1431
     17 C          13.1716  -35.3439    9.7452 C.ar    1  UNL1        0.0371
     18 C          12.2941  -36.3793    9.9989 C.ar    1  UNL1        0.0031
     19 C          11.3768  -36.2833   11.0328 C.ar    1  UNL1        0.0003
     20 C          11.3345  -35.1547   11.8220 C.ar    1  UNL1        0.0076
     21 C          12.2133  -34.0972   11.5733 C.ar    1  UNL1        0.0889
     22 C          15.3686  -33.3849   10.6435 C.3     1  UNL1        0.2525
     23 O          14.0020  -33.1807   10.2789 O.3     1  UNL1       -0.4713
     24 C          15.6125  -25.3965   14.4615 C.ar    1  UNL1       -0.0175
     25 C          15.1838  -24.0903   14.2967 C.ar    1  UNL1       -0.0008
     26 C          15.8442  -23.2423   13.4278 C.ar    1  UNL1        0.0364
     27 C          16.9350  -23.6989   12.7063 C.ar    1  UNL1        0.1351
     28 C          17.3691  -25.0220   12.8656 C.ar    1  UNL1        0.0541
     29 C          16.6965  -25.8674   13.7511 C.ar    1  UNL1        0.0007
     30 O          17.5808  -22.8680   11.8478 O.3     1  UNL1       -0.5055
     31 H          17.2890  -21.9839   11.7428 H       1  UNL1        0.2922
     32 C          18.5286  -25.5184   12.1035 C.2     1  UNL1        0.1206
     33 N          19.4502  -26.2103   12.7012 N.2     1  UNL1       -0.1772
     34 N          20.5524  -26.6824   11.9766 N.am    1  UNL1       -0.2022
     35 C          21.6640  -27.0824   12.6253 C.2     1  UNL1        0.2674
     36 O          21.7102  -27.0337   13.8397 O.2     1  UNL1       -0.2683
     37 H          20.5150  -26.7219   10.9936 H       1  UNL1        0.1776
     38 C          22.8244  -27.5794   11.8625 C.ar    1  UNL1        0.0889
     39 C          24.0280  -26.8698   11.8726 C.ar    1  UNL1        0.0076
     40 C          25.1097  -27.3417   11.1614 C.ar    1  UNL1        0.0003
     41 C          25.0068  -28.5123   10.4273 C.ar    1  UNL1        0.0031
     42 C          23.8219  -29.2207   10.4047 C.ar    1  UNL1        0.0371
     43 C          22.7244  -28.7631   11.1186 C.ar    1  UNL1        0.1431
     44 O          21.5593  -29.4577   11.0966 O.3     1  UNL1       -0.4713
     45 C          21.6533  -30.8787   10.9780 C.3     1  UNL1        0.2525
@<TRIPOS>BOND
     1    22    23    1
     2    23    16    1
     3    16    21   ar
     4    16    17   ar
     5    17    18   ar
     6    18    19   ar
     7    19    20   ar
     8    20    21   ar
     9    21    12    1
    10    12    13    2
    11    12    14   am
    12    14    10    1
    13    10    11    2
    14    11     2    1
    15     2     7   ar
    16     2     3   ar
    17     3     4   ar
    18     4     5   ar
    19     4     1    1
    20     5     6   ar
    21     6     7   ar
    22     7     8    1
    23     1    24    1
    24    24    29   ar
    25    24    25   ar
    26    25    26   ar
    27    26    27   ar
    28    27    28   ar
    29    27    30    1
    30    28    29   ar
    31    28    32    1
    32    32    33    2
    33    33    34    1
    34    34    35   am
    35    35    36    2
    36    35    38    1
    37    38    43   ar
    38    38    39   ar
    39    39    40   ar
    40    40    41   ar
    41    41    42   ar
    42    42    43   ar
    43    43    44    1
    44    44    45    1
    45    14    15    1
    46     8     9    1
    47    34    37    1
    48    30    31    1
#	Name:			ZINC03146728
#	Creating user name:	trannguyen
#	Creation time:		Wed Dec  7 14:36:20 2022


#	Modifying user name:	trannguyen
#	Modification time:	Wed Dec  7 14:36:20 2022

@<TRIPOS>MOLECULE
ZINC03146728
 36 37 0 0 0
SMALL
GASTEIGER

@<TRIPOS>ATOM
      1 C          17.9655  -25.3963   17.0593 C.3     1  UNL1        0.2897
      2 C          16.5234  -25.8151   16.9320 C.2     1  UNL1        0.2707
      3 O          15.8137  -25.8525   17.9148 O.2     1  UNL1       -0.2707
      4 N          16.0224  -26.1481   15.7259 N.am    1  UNL1       -0.2808
      5 H          16.5780  -26.0529   14.9187 H       1  UNL1        0.1550
      6 C          14.7107  -26.6298   15.6208 C.ar    1  UNL1        0.0535
      7 C          14.4199  -27.9365   15.9891 C.ar    1  UNL1        0.0162
      8 C          13.1273  -28.4139   15.8865 C.ar    1  UNL1        0.0202
      9 C          12.1174  -27.5883   15.4147 C.ar    1  UNL1        0.0981
     10 C          12.4080  -26.2787   15.0393 C.ar    1  UNL1        0.1493
     11 C          13.7025  -25.8000   15.1491 C.ar    1  UNL1        0.0526
     12 O          11.4202  -25.4695   14.5709 O.3     1  UNL1       -0.5042
     13 H          10.5443  -25.7941   14.4968 H       1  UNL1        0.2923
     14 N          10.8063  -28.0734   15.3105 N.pl3   1  UNL1       -0.2158
     15 H          10.2051  -28.0383   16.0893 H       1  UNL1        0.1735
     16 S          10.2688  -28.7053   13.8773 S.O2    1  UNL1        0.0559
     17 O           9.8287  -27.5812   13.1278 O.2     1  UNL1       -0.1544
     18 O           9.3565  -29.7285   14.2517 O.2     1  UNL1       -0.1544
     19 C          11.7414  -29.4324   13.1069 C.3     1  UNL1        0.1996
     20 O          18.4814  -25.0663   15.7681 O.3     1  UNL1       -0.4659
     21 C          20.2928  -21.3824   15.3603 C.ar    1  UNL1       -0.0229
     22 C          20.3131  -22.0301   16.5820 C.ar    1  UNL1       -0.0012
     23 C          19.7075  -23.2637   16.7211 C.ar    1  UNL1        0.0363
     24 C          19.0781  -23.8527   15.6339 C.ar    1  UNL1        0.1352
     25 C          19.0635  -23.2034   14.4083 C.ar    1  UNL1        0.0109
     26 C          19.6658  -21.9669   14.2757 C.ar    1  UNL1       -0.0056
     27 C          20.9548  -20.0368   15.2114 C.3     1  UNL1        0.0189
     28 C          20.5333  -19.1301   16.3694 C.3     1  UNL1        0.0044
     29 C          22.4747  -20.2116   15.2277 C.3     1  UNL1        0.0044
     30 C          21.6732  -18.5475   13.3383 C.3     1  UNL1        0.0003
     31 C          20.5286  -19.4026   13.8859 C.3     1  UNL1        0.0040
     32 C          18.3861  -23.8430   13.2237 C.3     1  UNL1        0.0218
     33 C          18.8402  -25.2989   13.1015 C.3     1  UNL1        0.0045
     34 C          16.8691  -23.7964   13.4172 C.3     1  UNL1        0.0045
     35 C          18.7614  -23.0830   11.9499 C.3     1  UNL1        0.0041
     36 C          17.9764  -23.6523   10.7665 C.3     1  UNL1        0.0003
@<TRIPOS>BOND
     1    30    31    1
     2    31    27    1
     3    27    28    1
     4    27    29    1
     5    27    21    1
     6    21    26   ar
     7    21    22   ar
     8    22    23   ar
     9    23    24   ar
    10    24    25   ar
    11    24    20    1
    12    25    26   ar
    13    25    32    1
    14    32    33    1
    15    32    34    1
    16    32    35    1
    17    35    36    1
    18    20     1    1
    19     1     2    1
    20     2     3    2
    21     2     4   am
    22     4     6    1
    23     6    11   ar
    24     6     7   ar
    25     7     8   ar
    26     8     9   ar
    27     9    10   ar
    28     9    14    1
    29    10    11   ar
    30    10    12    1
    31    14    16    1
    32    16    17    2
    33    16    18    2
    34    16    19    1
    35     4     5    1
    36    12    13    1
    37    14    15    1
#	Name:			ZINC03220855
#	Creating user name:	trannguyen
#	Creation time:		Wed Dec  7 14:36:19 2022


#	Modifying user name:	trannguyen
#	Modification time:	Wed Dec  7 14:36:19 2022

@<TRIPOS>MOLECULE
ZINC03220855
 43 46 0 0 0
SMALL
GASTEIGER

@<TRIPOS>ATOM
      1 S          14.6990  -27.7137   21.1283 S.O2    1  UNL1        0.0274
      2 O          14.0246  -26.7295   21.8999 O.2     1  UNL1       -0.1642
      3 O          14.7736  -29.0754   21.5274 O.2     1  UNL1       -0.1642
      4 C          12.7896  -27.6720   17.0217 C.ar    1  UNL1        0.0451
      5 C          12.0574  -27.2764   18.1339 C.ar    1  UNL1        0.0156
      6 C          12.6412  -27.2952   19.3853 C.ar    1  UNL1        0.0200
      7 C          13.9563  -27.6971   19.5305 C.ar    1  UNL1        0.1104
      8 C          14.6897  -28.0866   18.4248 C.ar    1  UNL1        0.0200
      9 C          14.1104  -28.0753   17.1712 C.ar    1  UNL1        0.0156
     10 N          12.2009  -27.6589   15.7551 N.pl3   1  UNL1       -0.3253
     11 H          11.8043  -28.4819   15.3880 H       1  UNL1        0.1473
     12 C          12.1736  -26.4205   14.9729 C.3     1  UNL1        0.1739
     13 N          14.1334  -24.9124   15.0289 N.am    1  UNL1       -0.2825
     14 C          13.5775  -26.0506   14.5687 C.2     1  UNL1        0.2461
     15 O          14.2070  -26.7773   13.8294 O.2     1  UNL1       -0.2729
     16 H          13.6524  -24.3608   15.6874 H       1  UNL1        0.1549
     17 C          19.2451  -23.3003   13.1698 C.3     1  UNL1        0.0310
     18 C          17.8873  -23.7284   13.6637 C.ar    1  UNL1       -0.0218
     19 C          17.7852  -24.6034   14.7296 C.ar    1  UNL1       -0.0030
     20 C          16.5422  -24.9977   15.1847 C.ar    1  UNL1        0.0143
     21 C          15.3943  -24.5145   14.5705 C.ar    1  UNL1        0.0503
     22 C          15.5002  -23.6360   13.5003 C.ar    1  UNL1        0.0143
     23 C          16.7461  -23.2456   13.0500 C.ar    1  UNL1       -0.0030
     24 C          16.3587  -27.1534   20.9371 C.ar    1  UNL1        0.1104
     25 C          16.6057  -25.8621   20.5086 C.ar    1  UNL1        0.0200
     26 C          17.9053  -25.4179   20.3631 C.ar    1  UNL1        0.0156
     27 C          18.9648  -26.2736   20.6368 C.ar    1  UNL1        0.0451
     28 C          18.7130  -27.5720   21.0616 C.ar    1  UNL1        0.0156
     29 C          17.4110  -28.0079   21.2104 C.ar    1  UNL1        0.0200
     30 N          20.2804  -25.8294   20.4857 N.pl3   1  UNL1       -0.3253
     31 H          20.7623  -25.4474   21.2545 H       1  UNL1        0.1473
     32 C          20.9431  -25.9321   19.1831 C.3     1  UNL1        0.1739
     33 C          21.1187  -24.5542   18.5988 C.2     1  UNL1        0.2461
     34 O          22.1380  -23.9316   18.8094 O.2     1  UNL1       -0.2729
     35 N          20.1429  -24.0136   17.8424 N.am    1  UNL1       -0.2825
     36 H          19.2857  -24.4854   17.7340 H       1  UNL1        0.1549
     37 C          20.3482  -22.7817   17.2113 C.ar    1  UNL1        0.0503
     38 C          21.1078  -22.7125   16.0508 C.ar    1  UNL1        0.0143
     39 C          21.3041  -21.4959   15.4274 C.ar    1  UNL1       -0.0030
     40 C          20.7543  -20.3458   15.9635 C.ar    1  UNL1       -0.0218
     41 C          20.0018  -20.4107   17.1218 C.ar    1  UNL1       -0.0030
     42 C          19.7973  -21.6250   17.7472 C.ar    1  UNL1        0.0143
     43 C          20.9754  -19.0192   15.2838 C.3     1  UNL1        0.0310
@<TRIPOS>BOND
     1    17    18    1
     2    18    23   ar
     3    18    19   ar
     4    19    20   ar
     5    20    21   ar
     6    21    22   ar
     7    21    13    1
     8    22    23   ar
     9    13    14   am
    10    14    15    2
    11    14    12    1
    12    12    10    1
    13    10     4    1
    14     4     9   ar
    15     4     5   ar
    16     5     6   ar
    17     6     7   ar
    18     7     8   ar
    19     7     1    1
    20     8     9   ar
    21     1     2    2
    22     1     3    2
    23     1    24    1
    24    24    29   ar
    25    24    25   ar
    26    25    26   ar
    27    26    27   ar
    28    27    28   ar
    29    27    30    1
    30    28    29   ar
    31    30    32    1
    32    32    33    1
    33    33    34    2
    34    33    35   am
    35    35    37    1
    36    37    42   ar
    37    37    38   ar
    38    38    39   ar
    39    39    40   ar
    40    40    41   ar
    41    40    43    1
    42    41    42   ar
    43    13    16    1
    44    10    11    1
    45    30    31    1
    46    35    36    1
#	Name:			ZINC03251112
#	Creating user name:	trannguyen
#	Creation time:		Wed Dec  7 14:36:20 2022


#	Modifying user name:	trannguyen
#	Modification time:	Wed Dec  7 14:36:20 2022

@<TRIPOS>MOLECULE
ZINC03251112
 40 42 0 0 0
SMALL
GASTEIGER

@<TRIPOS>ATOM
      1 C          17.2555  -25.3200   15.4604 C.ar    1  UNL1        0.0863
      2 C          16.5619  -24.5197   14.5459 C.ar    1  UNL1        0.1086
      3 C          17.3093  -23.6881   13.7136 C.ar    1  UNL1        0.0568
      4 C          18.6890  -23.7144   13.8693 C.ar    1  UNL1        0.0592
      5 S          18.9139  -24.9092   15.1726 S.2     1  UNL1       -0.0695
      6 N          16.7016  -22.8666   12.7756 N.pl3   1  UNL1       -0.3564
      7 H          15.7214  -22.8654   12.6839 H       1  UNL1        0.1424
      8 H          17.2506  -22.2848   12.2017 H       1  UNL1        0.1424
      9 N          16.7436  -26.2128   16.3726 N.pl3   1  UNL1       -0.3050
     10 H          16.4555  -27.1069   16.0779 H       1  UNL1        0.1528
     11 C          15.9062  -26.6495   18.6007 C.ar    1  UNL1        0.1518
     12 C          15.8031  -26.2881   19.9341 C.ar    1  UNL1        0.0382
     13 C          16.4117  -25.1319   20.3863 C.ar    1  UNL1        0.0032
     14 C          17.1282  -24.3355   19.5120 C.ar    1  UNL1        0.0015
     15 C          17.2400  -24.6914   18.1813 C.ar    1  UNL1        0.0177
     16 C          16.6323  -25.8503   17.7201 C.ar    1  UNL1        0.0831
     17 O          15.3037  -27.7836   18.1533 O.3     1  UNL1       -0.4742
     18 C          13.6135  -29.4515   18.6023 C.3     1  UNL1        0.0512
     19 C          13.9241  -27.9582   18.4820 C.3     1  UNL1        0.2056
     20 C          19.6689  -22.9787   13.1694 C.2     1  UNL1        0.0887
     21 O          19.5059  -22.7137   11.9911 O.2     1  UNL1       -0.3124
     22 N          20.7850  -22.5692   13.8042 N.am    1  UNL1       -0.6068
     23 C          20.8552  -21.2721   14.3323 C.ar    1  UNL1       -0.0617
     24 C          20.4236  -21.0251   15.6298 C.ar    1  UNL1        0.1492
     25 C          20.4991  -19.7444   16.1517 C.ar    1  UNL1        0.1951
     26 C          20.9941  -18.7074   15.3767 C.ar    1  UNL1        0.1990
     27 C          21.4197  -18.9507   14.0804 C.ar    1  UNL1        0.1951
     28 C          21.3512  -20.2311   13.5569 C.ar    1  UNL1        0.1492
     29 F          21.7658  -20.4678   12.2931 F       1  UNL1       -0.2036
     30 F          21.9022  -17.9384   13.3270 F       1  UNL1       -0.1994
     31 F          21.0621  -17.4578   15.8858 F       1  UNL1       -0.1993
     32 F          20.0847  -19.5048   17.4150 F       1  UNL1       -0.1994
     33 F          19.9355  -22.0345   16.3835 F       1  UNL1       -0.2036
     34 C          15.1016  -24.5582   14.4626 C.2     1  UNL1        0.3442
     35 O          14.4602  -23.5280   14.5469 O.2     1  UNL1       -0.2448
     36 O          14.4665  -25.7358   14.2922 O.3     1  UNL1       -0.4426
     37 C          13.3466  -26.0145   15.1733 C.3     1  UNL1        0.2407
     38 C          12.8385  -27.4350   14.9187 C.3     1  UNL1        0.1895
     39 O          12.2092  -27.4933   13.6371 O.3     1  UNL1       -0.3471
     40 C          12.7818  -28.4578   12.7517 C.3     1  UNL1        0.1743
@<TRIPOS>UNITY_ATOM_ATTR
22 1
charge -1
@<TRIPOS>BOND
     1    18    19    1
     2    19    17    1
     3    17    11    1
     4    11    16   ar
     5    11    12   ar
     6    12    13   ar
     7    13    14   ar
     8    14    15   ar
     9    15    16   ar
    10    16     9    1
    11     9     1    1
    12     1     5   ar
    13     1     2   ar
    14     2     3   ar
    15     2    34    1
    16     3     4   ar
    17     3     6    1
    18     4     5   ar
    19     4    20    1
    20    20    21    2
    21    20    22    1
    22    22    23    1
    23    23    28   ar
    24    23    24   ar
    25    24    25   ar
    26    24    33    1
    27    25    26   ar
    28    25    32    1
    29    26    27   ar
    30    26    31    1
    31    27    28   ar
    32    27    30    1
    33    28    29    1
    34    34    35    2
    35    34    36    1
    36    36    37    1
    37    37    38    1
    38    38    39    1
    39    39    40    1
    40     9    10    1
    41     6     7    1
    42     6     8    1
#	Name:			ZINC03301280
#	Creating user name:	trannguyen
#	Creation time:		Wed Dec  7 14:36:20 2022


#	Modifying user name:	trannguyen
#	Modification time:	Wed Dec  7 14:36:20 2022

@<TRIPOS>MOLECULE
ZINC03301280
 45 49 0 0 0
SMALL
GASTEIGER

@<TRIPOS>ATOM
      1 N          14.5162  -26.5264   14.2371 N.am    1  UNL1       -0.2303
      2 C          14.9306  -25.2603   14.4409 C.2     1  UNL1        0.2614
      3 O          14.1426  -24.4168   14.8221 O.2     1  UNL1       -0.2686
      4 H          15.1545  -27.2095   13.9284 H       1  UNL1        0.1731
      5 C          16.3435  -24.8972   14.2009 C.ar    1  UNL1        0.0548
      6 C          16.6582  -23.7805   13.4250 C.ar    1  UNL1        0.0043
      7 C          17.9786  -23.4441   13.2093 C.ar    1  UNL1       -0.0025
      8 C          18.9900  -24.2175   13.7511 C.ar    1  UNL1       -0.0020
      9 C          18.6850  -25.3290   14.5164 C.ar    1  UNL1       -0.0025
     10 C          17.3685  -25.6730   14.7445 C.ar    1  UNL1        0.0043
     11 C          20.4303  -23.8476   13.5061 C.3     1  UNL1        0.1250
     12 N          20.6553  -22.4603   13.9197 N.am    1  UNL1       -0.2509
     13 C          20.4287  -21.9666   15.1983 C.ar    1  UNL1        0.0545
     14 C          19.9813  -22.4621   16.4091 C.ar    1  UNL1        0.0149
     15 C          19.8857  -21.6180   17.5148 C.ar    1  UNL1        0.0013
     16 C          20.2160  -20.2905   17.4764 C.ar    1  UNL1        0.0001
     17 C          20.6827  -19.7507   16.2665 C.ar    1  UNL1        0.0013
     18 C          20.7646  -20.6168   15.1756 C.ar    1  UNL1        0.0181
     19 C          21.1965  -20.2375   13.8959 C.ar    1  UNL1        0.0551
     20 C          21.5601  -18.9128   13.7292 C.ar    1  UNL1        0.0046
     21 C          21.4839  -18.0340   14.8093 C.ar    1  UNL1        0.0001
     22 C          21.0607  -18.4136   16.0549 C.ar    1  UNL1        0.0000
     23 C          21.1100  -21.4713   13.1056 C.2     1  UNL1        0.2530
     24 O          21.3955  -21.5883   11.9285 O.2     1  UNL1       -0.2696
     25 C          12.8522  -28.1394   14.7817 C.2     1  UNL1        0.2558
     26 O          13.7057  -29.0010   14.7866 O.2     1  UNL1       -0.2718
     27 N          13.1773  -26.8706   14.4645 N.am    1  UNL1       -0.2323
     28 H          12.4739  -26.1855   14.3926 H       1  UNL1        0.1729
     29 C          11.4280  -28.4877   15.1304 C.3     1  UNL1        0.1480
     30 C          11.1145  -29.3340   12.8005 C.3     1  UNL1        0.0022
     31 C          10.5586  -28.3966   13.8746 C.3     1  UNL1        0.0269
     32 C           9.1246  -28.8061   14.2163 C.3     1  UNL1        0.0022
     33 N          10.9287  -27.5498   16.1390 N.pl3   1  UNL1       -0.3263
     34 H          10.3628  -26.7911   15.8682 H       1  UNL1        0.1472
     35 C          11.2557  -27.7322   17.4853 C.ar    1  UNL1        0.0556
     36 C          12.3891  -27.1284   18.0143 C.ar    1  UNL1        0.0151
     37 C          12.7064  -27.3060   19.3468 C.ar    1  UNL1        0.0052
     38 C          11.9036  -28.0933   20.1518 C.ar    1  UNL1        0.0723
     39 C          10.7775  -28.7008   19.6279 C.ar    1  UNL1        0.0165
     40 C          10.4506  -28.5229   18.2968 C.ar    1  UNL1        0.0707
     41 CL          9.0364  -29.2855   17.6395 Cl      1  UNL1       -0.0810
     42 C          12.2572  -28.2898   21.6035 C.3     1  UNL1        0.4186
     43 F          11.0890  -28.2822   22.3732 F       1  UNL1       -0.1659
     44 F          12.9121  -29.5159   21.7621 F       1  UNL1       -0.1659
     45 F          13.0987  -27.2540   22.0229 F       1  UNL1       -0.1659
@<TRIPOS>BOND
     1    30    31    1
     2    31    32    1
     3    31    29    1
     4    29    25    1
     5    29    33    1
     6    25    26    2
     7    25    27   am
     8    27     1    1
     9     1     2   am
    10     2     3    2
    11     2     5    1
    12     5    10   ar
    13     5     6   ar
    14     6     7   ar
    15     7     8   ar
    16     8     9   ar
    17     8    11    1
    18     9    10   ar
    19    11    12    1
    20    12    23   am
    21    12    13    1
    22    13    18   ar
    23    13    14   ar
    24    14    15   ar
    25    15    16   ar
    26    16    17   ar
    27    17    22   ar
    28    17    18   ar
    29    18    19   ar
    30    19    20   ar
    31    19    23    1
    32    20    21   ar
    33    21    22   ar
    34    23    24    2
    35    33    35    1
    36    35    40   ar
    37    35    36   ar
    38    36    37   ar
    39    37    38   ar
    40    38    39   ar
    41    38    42    1
    42    39    40   ar
    43    40    41    1
    44    42    43    1
    45    42    44    1
    46    42    45    1
    47    27    28    1
    48     1     4    1
    49    33    34    1
#	Name:			ZINC03306007
#	Creating user name:	trannguyen
#	Creation time:		Wed Dec  7 14:36:19 2022


#	Modifying user name:	trannguyen
#	Modification time:	Wed Dec  7 14:36:19 2022

@<TRIPOS>MOLECULE
ZINC03306007
 41 44 0 0 0
SMALL
GASTEIGER

@<TRIPOS>ATOM
      1 N          19.5653  -23.5923   12.9991 N.am    1  UNL1       -0.2946
      2 H          20.1272  -24.3618   12.7512 H       1  UNL1        0.1539
      3 C          21.9007  -19.0148   15.4017 C.3     1  UNL1        0.0311
      4 C          21.2815  -20.2311   14.7628 C.ar    1  UNL1       -0.0204
      5 C          20.6501  -20.1208   13.5372 C.ar    1  UNL1       -0.0029
      6 C          20.0819  -21.2335   12.9489 C.ar    1  UNL1        0.0157
      7 C          20.1449  -22.4644   13.5895 C.ar    1  UNL1        0.0686
      8 C          20.7797  -22.5718   14.8199 C.ar    1  UNL1        0.1382
      9 C          21.3465  -21.4551   15.4026 C.ar    1  UNL1        0.0172
     10 S          20.8619  -24.1308   15.6368 S.O2    1  UNL1        0.0748
     11 O          19.5301  -24.6206   15.7121 O.2     1  UNL1       -0.1499
     12 O          21.9083  -24.8618   15.0122 O.2     1  UNL1       -0.1499
     13 N          21.3492  -23.8430   17.1931 N.pl3   1  UNL1       -0.2150
     14 H          22.1169  -23.2518   17.3671 H       1  UNL1        0.1737
     15 C          20.6698  -24.4401   18.2608 C.ar    1  UNL1        0.0650
     16 C          21.0937  -25.6667   18.7549 C.ar    1  UNL1        0.0190
     17 C          20.4260  -26.2526   19.8126 C.ar    1  UNL1        0.0382
     18 C          19.3252  -25.6220   20.3732 C.ar    1  UNL1        0.1388
     19 C          18.8980  -24.3994   19.8768 C.ar    1  UNL1        0.0382
     20 C          19.5679  -23.8092   18.8230 C.ar    1  UNL1        0.0190
     21 O          18.6647  -26.2026   21.4106 O.3     1  UNL1       -0.4714
     22 C          17.9075  -27.3793   21.1205 C.3     1  UNL1        0.2525
     23 C          18.2376  -23.6257   12.7695 C.2     1  UNL1        0.1389
     24 S          17.6492  -23.9413   11.1931 S.2     1  UNL1       -0.0182
     25 N          17.3732  -23.4105   13.7809 N.am    1  UNL1       -0.2957
     26 H          17.3693  -22.5445   14.2492 H       1  UNL1        0.1539
     27 C          16.4817  -24.4175   14.1653 C.ar    1  UNL1        0.0496
     28 C          15.1916  -24.0904   14.5622 C.ar    1  UNL1        0.0160
     29 C          14.3121  -25.0876   14.9362 C.ar    1  UNL1        0.0212
     30 C          14.7184  -26.4093   14.9266 C.ar    1  UNL1        0.1223
     31 C          16.0040  -26.7377   14.5368 C.ar    1  UNL1        0.0212
     32 C          16.8865  -25.7460   14.1563 C.ar    1  UNL1        0.0160
     33 S          13.5956  -27.6777   15.4113 S.O2    1  UNL1        0.0634
     34 O          14.3599  -28.8684   15.5421 O.2     1  UNL1       -0.1528
     35 O          12.8213  -27.1484   16.4788 O.2     1  UNL1       -0.1528
     36 N          12.5547  -27.9198   14.1464 N.3     1  UNL1       -0.1504
     37 C          12.8480  -28.9164   13.1041 C.3     1  UNL1        0.1279
     38 C          11.6080  -29.8081   12.9312 C.3     1  UNL1        0.1613
     39 O          10.4624  -28.9810   12.7136 O.3     1  UNL1       -0.3507
     40 C          10.1494  -28.1151   13.8072 C.3     1  UNL1        0.1613
     41 C          11.3120  -27.1407   14.0281 C.3     1  UNL1        0.1279
@<TRIPOS>BOND
     1     3     4    1
     2     4     9   ar
     3     4     5   ar
     4     5     6   ar
     5     6     7   ar
     6     7     8   ar
     7     7     1    1
     8     8     9   ar
     9     8    10    1
    10    10    11    2
    11    10    12    2
    12    10    13    1
    13    13    15    1
    14    15    20   ar
    15    15    16   ar
    16    16    17   ar
    17    17    18   ar
    18    18    19   ar
    19    18    21    1
    20    19    20   ar
    21    21    22    1
    22     1    23    1
    23    23    24    2
    24    23    25    1
    25    25    27    1
    26    27    32   ar
    27    27    28   ar
    28    28    29   ar
    29    29    30   ar
    30    30    31   ar
    31    30    33    1
    32    31    32   ar
    33    33    34    2
    34    33    35    2
    35    33    36    1
    36    36    41    1
    37    36    37    1
    38    37    38    1
    39    38    39    1
    40    39    40    1
    41    40    41    1
    42    13    14    1
    43     1     2    1
    44    25    26    1
#	Name:			ZINC03456346
#	Creating user name:	trannguyen
#	Creation time:		Wed Dec  7 14:36:19 2022


#	Modifying user name:	trannguyen
#	Modification time:	Wed Dec  7 14:36:19 2022

@<TRIPOS>MOLECULE
ZINC03456346
 44 48 0 0 0
SMALL
GASTEIGER

@<TRIPOS>ATOM
      1 C          13.3323  -25.8833   15.2530 C.2     1  UNL1        0.2615
      2 O          13.0642  -24.7288   14.9838 O.2     1  UNL1       -0.2686
      3 N          14.5571  -26.3729   14.9762 N.am    1  UNL1       -0.2301
      4 H          14.7743  -27.3080   15.1943 H       1  UNL1        0.1731
      5 C          11.2694  -27.7390   17.8182 C.ar    1  UNL1        0.0814
      6 C          12.2522  -26.9051   17.2617 C.ar    1  UNL1        0.0237
      7 C          12.3144  -26.7510   15.8847 C.ar    1  UNL1        0.0577
      8 C          11.3292  -27.4765   15.0822 C.ar    1  UNL1        0.0221
      9 C          11.3164  -27.3892   13.6858 C.ar    1  UNL1        0.0016
     10 C          10.3842  -28.0863   12.9759 C.ar    1  UNL1        0.0001
     11 C           9.4477  -28.8894   13.6232 C.ar    1  UNL1        0.0015
     12 C           9.4359  -29.0013   14.9795 C.ar    1  UNL1        0.0191
     13 C          10.3827  -28.2966   15.7460 C.ar    1  UNL1        0.0814
     14 N          10.3953  -28.3869   17.0771 N.ar    1  UNL1       -0.2454
     15 C          11.1095  -28.1870   22.0436 C.ar    1  UNL1        0.1387
     16 C           9.9333  -28.0754   21.3137 C.ar    1  UNL1        0.0369
     17 C           9.9818  -27.9299   19.9438 C.ar    1  UNL1        0.0046
     18 C          11.2138  -27.8948   19.2908 C.ar    1  UNL1        0.0179
     19 C          12.3930  -28.0125   20.0262 C.ar    1  UNL1        0.0046
     20 C          12.3379  -28.1525   21.3965 C.ar    1  UNL1        0.0369
     21 C          12.2961  -28.2436   24.1023 C.3     1  UNL1        0.2525
     22 O          11.0585  -28.3307   23.3933 O.3     1  UNL1       -0.4714
     23 N          15.5212  -25.5510   14.3779 N.am    1  UNL1       -0.2301
     24 C          16.6041  -25.1619   15.0795 C.2     1  UNL1        0.2614
     25 O          16.7444  -25.5239   16.2313 O.2     1  UNL1       -0.2686
     26 H          15.4076  -25.2578   13.4450 H       1  UNL1        0.1731
     27 C          17.6215  -24.2946   14.4481 C.ar    1  UNL1        0.0560
     28 C          17.2641  -23.4413   13.4027 C.ar    1  UNL1        0.0046
     29 C          18.2182  -22.6351   12.8177 C.ar    1  UNL1        0.0014
     30 C          19.5274  -22.6712   13.2646 C.ar    1  UNL1        0.0169
     31 C          19.8883  -23.5148   14.2999 C.ar    1  UNL1        0.0894
     32 C          18.9436  -24.3264   14.8937 C.ar    1  UNL1        0.0215
     33 S          21.5582  -23.5535   14.8609 S.O2    1  UNL1       -0.0577
     34 O          21.5305  -24.0740   16.1829 O.2     1  UNL1       -0.1842
     35 O          22.3217  -24.1515   13.8225 O.2     1  UNL1       -0.1842
     36 N          22.0707  -21.9834   14.9812 N.pl3   1  UNL1       -0.5335
     37 C          21.3223  -21.0573   15.7169 C.ar    1  UNL1       -0.0775
     38 C          20.5071  -21.4883   16.7533 C.ar    1  UNL1       -0.0209
     39 C          19.7726  -20.5712   17.4815 C.ar    1  UNL1       -0.0017
     40 C          19.8405  -19.2251   17.1732 C.ar    1  UNL1        0.0030
     41 C          20.6469  -18.7888   16.1380 C.ar    1  UNL1        0.0350
     42 C          21.3897  -19.7008   15.4066 C.ar    1  UNL1        0.1167
     43 O          22.1826  -19.2730   14.3877 O.3     1  UNL1       -0.4733
     44 C          21.6384  -18.2812   13.5146 C.3     1  UNL1        0.2524
@<TRIPOS>UNITY_ATOM_ATTR
36 1
charge -1
@<TRIPOS>BOND
     1    21    22    1
     2    22    15    1
     3    15    20   ar
     4    15    16   ar
     5    16    17   ar
     6    17    18   ar
     7    18    19   ar
     8    18     5    1
     9    19    20   ar
    10     5    14   ar
    11     5     6   ar
    12     6     7   ar
    13     7     8   ar
    14     7     1    1
    15     8    13   ar
    16     8     9   ar
    17     9    10   ar
    18    10    11   ar
    19    11    12   ar
    20    12    13   ar
    21    13    14   ar
    22     1     2    2
    23     1     3   am
    24     3    23    1
    25    23    24   am
    26    24    25    2
    27    24    27    1
    28    27    32   ar
    29    27    28   ar
    30    28    29   ar
    31    29    30   ar
    32    30    31   ar
    33    31    32   ar
    34    31    33    1
    35    33    34    2
    36    33    35    2
    37    33    36    1
    38    36    37    1
    39    37    42   ar
    40    37    38   ar
    41    38    39   ar
    42    39    40   ar
    43    40    41   ar
    44    41    42   ar
    45    42    43    1
    46    43    44    1
    47     3     4    1
    48    23    26    1
#	Name:			ZINC03618727
#	Creating user name:	trannguyen
#	Creation time:		Wed Dec  7 14:36:19 2022


#	Modifying user name:	trannguyen
#	Modification time:	Wed Dec  7 14:36:19 2022

@<TRIPOS>MOLECULE
ZINC03618727
 46 50 0 0 0
SMALL
GASTEIGER

@<TRIPOS>ATOM
      1 C          20.8525  -21.0574   15.0174 C.ar    1  UNL1        0.1180
      2 C          20.8792  -22.2217   15.7577 C.ar    1  UNL1        0.0211
      3 C          20.7213  -22.1677   17.1425 C.ar    1  UNL1        0.0207
      4 C          20.5372  -20.9356   17.7705 C.ar    1  UNL1        0.0013
      5 C          20.5124  -19.7788   17.0193 C.ar    1  UNL1       -0.0029
      6 C          20.6749  -19.8382   15.6465 C.ar    1  UNL1       -0.0032
      7 C          20.6526  -18.5701   14.8326 C.3     1  UNL1        0.0324
      8 C          20.7484  -23.4133   17.9427 C.ar    1  UNL1        0.1030
      9 C          19.5425  -24.0069   18.3925 C.ar    1  UNL1        0.0221
     10 C          18.2844  -23.4645   18.1152 C.ar    1  UNL1        0.0016
     11 C          17.1665  -24.0917   18.5827 C.ar    1  UNL1        0.0001
     12 C          17.2605  -25.2626   19.3301 C.ar    1  UNL1        0.0001
     13 C          18.4731  -25.8174   19.6180 C.ar    1  UNL1        0.0029
     14 C          19.6385  -25.1990   19.1539 C.ar    1  UNL1        0.0350
     15 C          20.9312  -25.7126   19.4113 C.ar    1  UNL1        0.1538
     16 N          21.9831  -25.0673   18.9370 N.ar    1  UNL1       -0.1328
     17 N          21.8974  -23.9930   18.2447 N.ar    1  UNL1       -0.1468
     18 N          21.0924  -26.8741   20.1488 N.pl3   1  UNL1       -0.2964
     19 H          20.6952  -26.9462   21.0468 H       1  UNL1        0.1537
     20 C          21.8186  -27.9434   19.6182 C.ar    1  UNL1        0.0524
     21 C          22.7391  -28.6202   20.4095 C.ar    1  UNL1        0.0148
     22 C          23.4527  -29.6808   19.8865 C.ar    1  UNL1        0.0044
     23 C          23.2620  -30.0645   18.5723 C.ar    1  UNL1        0.0367
     24 C          22.3484  -29.3888   17.7756 C.ar    1  UNL1        0.1349
     25 C          21.6260  -28.3276   18.2983 C.ar    1  UNL1        0.0512
     26 O          22.1625  -29.7672   16.4837 O.3     1  UNL1       -0.5055
     27 H          22.6510  -30.4847   16.1307 H       1  UNL1        0.2922
     28 S          21.0524  -21.1230   13.2679 S.O2    1  UNL1        0.0599
     29 O          21.8344  -22.2767   12.9916 O.2     1  UNL1       -0.1530
     30 O          21.4432  -19.8208   12.8548 O.2     1  UNL1       -0.1530
     31 N          19.5559  -21.3979   12.6142 N.3     1  UNL1       -0.1791
     32 H          18.8891  -20.8616   13.1694 H       1  UNL1        0.1488
     33 C          19.0334  -22.7638   12.5289 C.3     1  UNL1        0.0961
     34 C          17.6006  -22.7961   13.0649 C.3     1  UNL1        0.0453
     35 C          17.1064  -26.1892   15.6206 C.ar    1  UNL1        0.1722
     36 C          15.9966  -25.5152   15.1367 C.ar    1  UNL1        0.0397
     37 C          16.1596  -24.4199   14.3092 C.ar    1  UNL1       -0.0009
     38 C          17.4286  -23.9910   13.9670 C.ar    1  UNL1       -0.0175
     39 C          18.5401  -24.6555   14.4510 C.ar    1  UNL1        0.0358
     40 C          18.3837  -25.7540   15.2808 C.ar    1  UNL1        0.1719
     41 O          16.9477  -27.2703   16.4303 O.3     1  UNL1       -0.4724
     42 C          15.6853  -28.3646   18.1765 C.3     1  UNL1        0.0512
     43 C          15.6215  -27.5549   16.8799 C.3     1  UNL1        0.2057
     44 O          19.4760  -26.4087   15.7579 O.3     1  UNL1       -0.4724
     45 C          20.7532  -25.9570   15.3029 C.3     1  UNL1        0.2057
     46 C          21.3418  -26.9840   14.3336 C.3     1  UNL1        0.0512
@<TRIPOS>BOND
     1    42    43    1
     2    43    41    1
     3    41    35    1
     4    35    40   ar
     5    35    36   ar
     6    36    37   ar
     7    37    38   ar
     8    38    39   ar
     9    38    34    1
    10    39    40   ar
    11    40    44    1
    12    44    45    1
    13    45    46    1
    14    34    33    1
    15    33    31    1
    16    31    28    1
    17    28    29    2
    18    28    30    2
    19    28     1    1
    20     1     6   ar
    21     1     2   ar
    22     2     3   ar
    23     3     4   ar
    24     3     8    1
    25     4     5   ar
    26     5     6   ar
    27     6     7    1
    28     8    17   ar
    29     8     9   ar
    30     9    14   ar
    31     9    10   ar
    32    10    11   ar
    33    11    12   ar
    34    12    13   ar
    35    13    14   ar
    36    14    15   ar
    37    15    16   ar
    38    15    18    1
    39    16    17   ar
    40    18    20    1
    41    20    25   ar
    42    20    21   ar
    43    21    22   ar
    44    22    23   ar
    45    23    24   ar
    46    24    25   ar
    47    24    26    1
    48    31    32    1
    49    18    19    1
    50    26    27    1
#	Name:			ZINC03618731
#	Creating user name:	trannguyen
#	Creation time:		Wed Dec  7 14:36:20 2022


#	Modifying user name:	trannguyen
#	Modification time:	Wed Dec  7 14:36:20 2022

@<TRIPOS>MOLECULE
ZINC03618731
 46 50 0 0 0
SMALL
GASTEIGER

@<TRIPOS>ATOM
      1 C          20.8528  -20.5513   15.5637 C.ar    1  UNL1        0.1180
      2 C          20.9708  -21.7677   16.2047 C.ar    1  UNL1        0.0211
      3 C          20.5722  -21.8930   17.5354 C.ar    1  UNL1        0.0207
      4 C          20.0561  -20.7862   18.2101 C.ar    1  UNL1        0.0013
      5 C          19.9431  -19.5756   17.5584 C.ar    1  UNL1       -0.0029
      6 C          20.3452  -19.4564   16.2397 C.ar    1  UNL1       -0.0032
      7 C          20.2244  -18.1296   15.5354 C.3     1  UNL1        0.0324
      8 C          20.6956  -23.1954   18.2289 C.ar    1  UNL1        0.1030
      9 C          19.5401  -23.8964   18.6562 C.ar    1  UNL1        0.0221
     10 C          18.2446  -23.4127   18.4524 C.ar    1  UNL1        0.0016
     11 C          17.1796  -24.1441   18.8910 C.ar    1  UNL1        0.0001
     12 C          17.3641  -25.3635   19.5370 C.ar    1  UNL1        0.0001
     13 C          18.6152  -25.8636   19.7509 C.ar    1  UNL1        0.0029
     14 C          19.7283  -25.1378   19.3143 C.ar    1  UNL1        0.0350
     15 C          21.0559  -25.5903   19.4985 C.ar    1  UNL1        0.1538
     16 N          22.0539  -24.8452   19.0546 N.ar    1  UNL1       -0.1328
     17 N          21.8852  -23.7259   18.4550 N.ar    1  UNL1       -0.1468
     18 N          21.3065  -26.7951   20.1337 N.pl3   1  UNL1       -0.2965
     19 H          21.1363  -26.8873   21.0990 H       1  UNL1        0.1537
     20 C          21.8017  -27.8815   19.4036 C.ar    1  UNL1        0.0496
     21 C          21.2916  -28.1615   18.1425 C.ar    1  UNL1        0.0177
     22 C          21.7846  -29.2304   17.4205 C.ar    1  UNL1        0.0379
     23 C          22.7812  -30.0310   17.9591 C.ar    1  UNL1        0.1338
     24 C          23.2876  -29.7553   19.2207 C.ar    1  UNL1        0.0379
     25 C          22.7995  -28.6836   19.9419 C.ar    1  UNL1        0.0177
     26 O          23.2618  -31.0871   17.2500 O.3     1  UNL1       -0.5055
     27 H          22.9200  -31.2736   16.3977 H       1  UNL1        0.2922
     28 S          21.3563  -20.3907   13.8828 S.O2    1  UNL1        0.0599
     29 O          22.1035  -19.1852   13.7960 O.2     1  UNL1       -0.1530
     30 O          20.2026  -20.6309   13.0886 O.2     1  UNL1       -0.1530
     31 N          22.4131  -21.6263   13.5681 N.3     1  UNL1       -0.1791
     32 H          23.1749  -21.2292   13.0183 H       1  UNL1        0.1488
     33 C          21.9530  -22.8196   12.8535 C.3     1  UNL1        0.0961
     34 C          22.1923  -24.0572   13.7206 C.3     1  UNL1        0.0453
     35 C          18.4622  -25.4582   15.2742 C.ar    1  UNL1        0.1722
     36 C          19.6542  -25.9812   15.7493 C.ar    1  UNL1        0.0397
     37 C          20.8584  -25.5249   15.2465 C.ar    1  UNL1       -0.0009
     38 C          20.8767  -24.5508   14.2656 C.ar    1  UNL1       -0.0175
     39 C          19.6911  -24.0288   13.7831 C.ar    1  UNL1        0.0358
     40 C          18.4806  -24.4818   14.2827 C.ar    1  UNL1        0.1719
     41 O          17.2769  -25.9020   15.7716 O.3     1  UNL1       -0.4724
     42 C          15.8681  -27.5069   16.9029 C.3     1  UNL1        0.0512
     43 C          17.2783  -27.1825   16.4060 C.3     1  UNL1        0.2057
     44 O          17.3133  -23.9695   13.8091 O.3     1  UNL1       -0.4724
     45 C          17.3743  -23.2466   12.5779 C.3     1  UNL1        0.2057
     46 C          16.6041  -24.0107   11.4992 C.3     1  UNL1        0.0512
@<TRIPOS>BOND
     1    42    43    1
     2    43    41    1
     3    41    35    1
     4    35    40   ar
     5    35    36   ar
     6    36    37   ar
     7    37    38   ar
     8    38    39   ar
     9    38    34    1
    10    39    40   ar
    11    40    44    1
    12    44    45    1
    13    45    46    1
    14    34    33    1
    15    33    31    1
    16    31    28    1
    17    28    29    2
    18    28    30    2
    19    28     1    1
    20     1     6   ar
    21     1     2   ar
    22     2     3   ar
    23     3     4   ar
    24     3     8    1
    25     4     5   ar
    26     5     6   ar
    27     6     7    1
    28     8    17   ar
    29     8     9   ar
    30     9    14   ar
    31     9    10   ar
    32    10    11   ar
    33    11    12   ar
    34    12    13   ar
    35    13    14   ar
    36    14    15   ar
    37    15    16   ar
    38    15    18    1
    39    16    17   ar
    40    18    20    1
    41    20    25   ar
    42    20    21   ar
    43    21    22   ar
    44    22    23   ar
    45    23    24   ar
    46    23    26    1
    47    24    25   ar
    48    31    32    1
    49    18    19    1
    50    26    27    1
#	Name:			ZINC03619244
#	Creating user name:	trannguyen
#	Creation time:		Wed Dec  7 14:36:19 2022


#	Modifying user name:	trannguyen
#	Modification time:	Wed Dec  7 14:36:19 2022

@<TRIPOS>MOLECULE
ZINC03619244
 16 17 0 0 0
SMALL
GASTEIGER

@<TRIPOS>ATOM
      1 C          21.0326  -20.3438   15.5556 C.ar    1  UNL1        0.2026
      2 C          21.4242  -19.8922   14.3253 C.ar    1  UNL1        0.2514
      3 N          22.1511  -18.7454   14.5188 N.ar    1  UNL1       -0.1863
      4 C          22.2068  -18.4844   15.8388 C.ar    1  UNL1        0.4987
      5 O          22.7726  -17.5353   16.3489 O.2     1  UNL1       -0.1963
      6 N          21.5368  -19.4473   16.5037 N.ar    1  UNL1       -0.1987
      7 N          21.0580  -20.5968   13.2013 N.ar    1  UNL1       -0.2922
      8 C          20.3223  -21.7186   13.3134 C.ar    1  UNL1        0.3248
      9 O          20.0082  -22.3287   12.3094 O.2     1  UNL1       -0.2468
     10 N          19.9281  -22.1778   14.5148 N.ar    1  UNL1       -0.3171
     11 C          20.2628  -21.5210   15.6448 C.ar    1  UNL1        0.0192
     12 O          19.9029  -21.9408   16.7308 O.co2   1  UNL1       -0.8587
     13 O          21.4565  -20.1397   11.9217 O.co2   1  UNL1       -0.8012
     14 H          22.5643  -18.2021   13.8093 H       1  UNL1        0.3163
     15 H          21.4230  -19.5083   17.4797 H       1  UNL1        0.3149
     16 H          19.3905  -23.0007   14.5701 H       1  UNL1        0.1694
@<TRIPOS>UNITY_ATOM_ATTR
3 1
charge 1
12 1
charge -1
13 1
charge -1
@<TRIPOS>BOND
     1     1     6   ar
     2     1    11   ar
     3     1     2    1
     4     2     3   ar
     5     2     7   ar
     6     3     4   ar
     7     4     5    2
     8     4     6   ar
     9     7     8   ar
    10     7    13    1
    11     8     9    2
    12     8    10   ar
    13    10    11   ar
    14    11    12    1
    15     3    14    1
    16     6    15    1
    17    10    16    1
#	Name:			ZINC03861035
#	Creating user name:	trannguyen
#	Creation time:		Wed Dec  7 14:36:19 2022


#	Modifying user name:	trannguyen
#	Modification time:	Wed Dec  7 14:36:19 2022

@<TRIPOS>MOLECULE
ZINC03861035
 13 13 0 0 0
SMALL
GASTEIGER

@<TRIPOS>ATOM
      1 C          21.7155  -18.5672   13.9232 C.2     1  UNL1        0.1636
      2 C          21.7794  -18.5586   15.2991 C.2     1  UNL1       -0.0095
      3 C          21.5888  -19.7828   16.0863 C.2     1  UNL1        0.2252
      4 O          21.6467  -19.7414   17.2988 O.2     1  UNL1       -0.2842
      5 C          21.3245  -21.0777   15.3949 C.2     1  UNL1        0.2749
      6 O          21.1657  -22.0949   16.0274 O.2     1  UNL1       -0.2796
      7 C          21.2611  -21.0881   13.9011 C.2     1  UNL1        0.2790
      8 O          21.0499  -22.1139   13.2986 O.2     1  UNL1       -0.2795
      9 C          21.4652  -19.8031   13.1719 C.2     1  UNL1        0.2697
     10 O          21.4192  -19.7785   11.9584 O.2     1  UNL1       -0.2798
     11 O          22.0183  -17.3919   15.9412 O.co2   1  UNL1       -0.8687
     12 O          21.8927  -17.4086   13.2472 O.2     1  UNL1       -0.5034
     13 H          21.8515  -17.4013   12.3112 H       1  UNL1        0.2923
@<TRIPOS>UNITY_ATOM_ATTR
11 1
charge -1
@<TRIPOS>BOND
     1     1     9    1
     2     1     2    2
     3     1    12    1
     4     2     3    1
     5     2    11    1
     6     3     4    2
     7     3     5    1
     8     5     6    2
     9     5     7    1
    10     7     8    2
    11     7     9    1
    12     9    10    2
    13    12    13    1
#	Name:			ZINC03870533
#	Creating user name:	trannguyen
#	Creation time:		Wed Dec  7 14:36:20 2022


#	Modifying user name:	trannguyen
#	Modification time:	Wed Dec  7 14:36:20 2022

@<TRIPOS>MOLECULE
ZINC03870533
 42 44 0 0 0
SMALL
GASTEIGER

@<TRIPOS>ATOM
      1 C          21.4302  -19.2681   16.4753 C.ar    1  UNL1        0.2183
      2 N          20.3115  -18.9042   17.0986 N.ar    1  UNL1       -0.2122
      3 C          19.4961  -19.7970   17.6223 C.ar    1  UNL1        0.1048
      4 C          19.8248  -21.1581   17.5006 C.ar    1  UNL1        0.0552
      5 C          19.0047  -22.1694   18.0272 C.ar    1  UNL1        0.0074
      6 C          19.4102  -23.4845   17.8656 C.ar    1  UNL1        0.0322
      7 C          20.6165  -23.7601   17.1869 C.ar    1  UNL1        0.1369
      8 N          21.3688  -22.7937   16.7016 N.ar    1  UNL1       -0.2116
      9 C          21.0249  -21.5109   16.8296 C.ar    1  UNL1        0.1680
     10 N          21.7908  -20.5297   16.3361 N.ar    1  UNL1       -0.1947
     11 N          21.0186  -25.0781   17.0269 N.am    1  UNL1       -0.2536
     12 C          20.6581  -25.7635   15.9238 C.2     1  UNL1        0.3054
     13 O          19.9805  -25.2266   15.0690 O.2     1  UNL1       -0.2525
     14 N          21.0487  -27.0439   15.7683 N.am    1  UNL1       -0.2918
     15 H          21.5674  -25.5129   17.7191 H       1  UNL1        0.1578
     16 H          21.5975  -27.4786   16.4604 H       1  UNL1        0.1509
     17 C          20.6568  -27.7888   14.5691 C.3     1  UNL1        0.0583
     18 C          19.1338  -27.7606   14.4264 C.3     1  UNL1        0.0197
     19 C          21.2966  -27.1454   13.3372 C.3     1  UNL1        0.0197
     20 C          21.1308  -29.2384   14.6917 C.3     1  UNL1        0.0197
     21 C          18.5834  -24.5930   18.4008 C.ar    1  UNL1        0.0087
     22 C          17.5213  -25.0961   17.6524 C.ar    1  UNL1        0.0372
     23 C          16.7544  -26.1357   18.1529 C.ar    1  UNL1        0.1418
     24 C          17.0361  -26.6684   19.4024 C.ar    1  UNL1        0.0737
     25 C          18.0891  -26.1657   20.1527 C.ar    1  UNL1        0.1418
     26 C          18.8635  -25.1300   19.6556 C.ar    1  UNL1        0.0372
     27 O          18.3617  -26.6901   21.3765 O.3     1  UNL1       -0.4713
     28 C          17.4828  -27.7099   21.8557 C.3     1  UNL1        0.2525
     29 O          15.7219  -26.6310   17.4211 O.3     1  UNL1       -0.4713
     30 C          15.5915  -26.1570   16.0793 C.3     1  UNL1        0.2525
     31 N          22.2473  -18.2840   15.9524 N.pl3   1  UNL1       -0.3030
     32 H          22.6342  -17.5993   16.5446 H       1  UNL1        0.1496
     33 C          22.5377  -18.2594   14.5167 C.3     1  UNL1        0.0898
     34 C          21.2383  -18.4442   13.7303 C.3     1  UNL1        0.0273
     35 C          21.3495  -19.6883   12.8467 C.3     1  UNL1        0.0627
     36 C          20.1954  -20.6421   13.1613 C.3     1  UNL1        0.1053
     37 N          20.7498  -21.9794   13.4596 N.4     1  UNL1        0.2758
     38 H          20.7234  -22.1316   14.4678 H       1  UNL1        0.2067
     39 C          18.4506  -22.6818   12.8839 C.3     1  UNL1        0.0670
     40 C          19.9397  -23.0219   12.7953 C.3     1  UNL1        0.1055
     41 C          22.1519  -22.0591   12.9987 C.3     1  UNL1        0.1055
     42 C          22.7757  -23.3462   13.5423 C.3     1  UNL1        0.0670
@<TRIPOS>UNITY_ATOM_ATTR
37 1
charge 1
@<TRIPOS>BOND
     1    39    40    1
     2    40    37    1
     3    41    42    1
     4    41    37    1
     5    36    35    1
     6    36    37    1
     7    35    34    1
     8    34    33    1
     9    33    31    1
    10    31     1    1
    11     1    10   ar
    12     1     2   ar
    13     2     3   ar
    14     3     4   ar
    15     4     9   ar
    16     4     5   ar
    17     5     6   ar
    18     6     7   ar
    19     6    21    1
    20     7     8   ar
    21     7    11    1
    22     8     9   ar
    23     9    10   ar
    24    11    12   am
    25    12    13    2
    26    12    14   am
    27    14    17    1
    28    17    18    1
    29    17    19    1
    30    17    20    1
    31    21    26   ar
    32    21    22   ar
    33    22    23   ar
    34    23    24   ar
    35    23    29    1
    36    24    25   ar
    37    25    26   ar
    38    25    27    1
    39    27    28    1
    40    29    30    1
    41    31    32    1
    42    11    15    1
    43    14    16    1
    44    37    38    1
#	Name:			ZINC03982221
#	Creating user name:	trannguyen
#	Creation time:		Wed Dec  7 14:36:19 2022


#	Modifying user name:	trannguyen
#	Modification time:	Wed Dec  7 14:36:19 2022

@<TRIPOS>MOLECULE
ZINC03982221
 43 47 0 0 0
SMALL
GASTEIGER

@<TRIPOS>ATOM
      1 C          20.4384  -24.1436   14.5788 C.3     1  UNL1        0.1489
      2 O          21.0310  -24.1398   13.2784 O.3     1  UNL1       -0.3812
      3 H          21.7060  -24.8346   13.2287 H       1  UNL1        0.2105
      4 C          21.5173  -23.8827   15.6317 C.3     1  UNL1        0.1573
      5 N          21.0554  -22.8456   16.5576 N.4     1  UNL1       -0.0404
      6 S          21.1491  -23.0936   18.1922 S.O2    1  UNL1        0.0845
      7 O          22.1486  -24.0827   18.3963 O.2     1  UNL1       -0.1509
      8 O          21.2150  -21.8083   18.7948 O.2     1  UNL1       -0.1509
      9 C          17.2216  -24.9336   19.4946 C.ar    1  UNL1        0.1388
     10 C          17.2295  -23.8748   18.5982 C.ar    1  UNL1        0.0383
     11 C          18.4289  -23.3152   18.2024 C.ar    1  UNL1        0.0231
     12 C          19.6210  -23.8095   18.6990 C.ar    1  UNL1        0.1246
     13 C          19.6161  -24.8683   19.5882 C.ar    1  UNL1        0.0231
     14 C          18.4190  -25.4277   19.9914 C.ar    1  UNL1        0.0383
     15 C          16.1064  -26.5241   20.8652 C.3     1  UNL1        0.2525
     16 O          16.0430  -25.4855   19.8858 O.3     1  UNL1       -0.4714
     17 O          20.5288  -21.6312   16.0548 O.3     1  UNL1       -0.2649
     18 C          21.5207  -20.7243   15.5690 C.3     1  UNL1        0.1395
     19 C          21.3497  -19.3455   16.2393 C.3     1  UNL1        0.0317
     20 C          21.6816  -18.3331   15.1139 C.3     1  UNL1        0.0026
     21 C          21.0631  -18.9998   13.8602 C.3     1  UNL1        0.0026
     22 C          21.3390  -20.5048   14.0570 C.3     1  UNL1        0.0317
     23 C          19.7897  -25.5044   14.8396 C.3     1  UNL1        0.1074
     24 N          20.4171  -26.1289   16.0069 N.am    1  UNL1       -0.2695
     25 C          21.0647  -27.3036   15.8761 C.2     1  UNL1        0.4016
     26 O          21.1240  -27.8473   14.7909 O.2     1  UNL1       -0.2264
     27 H          20.3657  -25.6905   16.8869 H       1  UNL1        0.1528
     28 O          21.6413  -27.8775   16.9489 O.3     1  UNL1       -0.4357
     29 C          20.8149  -28.0447   18.1309 C.3     1  UNL1        0.2048
     30 C          20.0963  -29.4073   18.0961 C.3     1  UNL1        0.1884
     31 O          20.5953  -30.1791   19.1989 O.3     1  UNL1       -0.3265
     32 C          21.0282  -29.2532   20.2183 C.3     1  UNL1        0.2388
     33 C          21.6932  -28.1014   19.3982 C.3     1  UNL1        0.1016
     34 C          23.0569  -28.7412   19.0409 C.3     1  UNL1        0.0409
     35 C          23.3533  -29.6106   20.2812 C.3     1  UNL1        0.1451
     36 O          22.1093  -29.8582   20.9443 O.3     1  UNL1       -0.3304
     37 C          18.2948  -25.3144   15.1047 C.3     1  UNL1        0.0485
     38 C          17.6227  -24.8112   13.8533 C.ar    1  UNL1       -0.0204
     39 C          16.6667  -23.8160   13.9346 C.ar    1  UNL1       -0.0042
     40 C          16.0536  -23.3512   12.7861 C.ar    1  UNL1       -0.0003
     41 C          16.3888  -23.8888   11.5576 C.ar    1  UNL1       -0.0000
     42 C          17.3410  -24.8877   11.4768 C.ar    1  UNL1       -0.0003
     43 C          17.9579  -25.3489   12.6248 C.ar    1  UNL1       -0.0042
@<TRIPOS>BOND
     1    15    16    1
     2    16     9    1
     3     9    14   ar
     4     9    10   ar
     5    10    11   ar
     6    11    12   ar
     7    12    13   ar
     8    12     6    1
     9    13    14   ar
    10     6     7    2
    11     6     8    2
    12     6     5    1
    13     5     4    1
    14     5    17    1
    15     4     1    1
    16     1    23    1
    17     1     2    1
    18    23    37    1
    19    23    24    1
    20    37    38    1
    21    38    43   ar
    22    38    39   ar
    23    39    40   ar
    24    40    41   ar
    25    41    42   ar
    26    42    43   ar
    27    24    25   am
    28    25    26    2
    29    25    28    1
    30    28    29    1
    31    29    33    1
    32    29    30    1
    33    30    31    1
    34    31    32    1
    35    32    36    1
    36    32    33    1
    37    33    34    1
    38    34    35    1
    39    35    36    1
    40    17    18    1
    41    18    22    1
    42    18    19    1
    43    19    20    1
    44    20    21    1
    45    21    22    1
    46    24    27    1
    47     2     3    1
#	Name:			ZINC04018262
#	Creating user name:	trannguyen
#	Creation time:		Wed Dec  7 14:36:19 2022


#	Modifying user name:	trannguyen
#	Modification time:	Wed Dec  7 14:36:19 2022

@<TRIPOS>MOLECULE
ZINC04018262
 46 48 0 0 0
SMALL
GASTEIGER

@<TRIPOS>ATOM
      1 C          20.8272  -23.1067   14.1906 C.3     1  UNL1        0.1544
      2 C          18.9193  -23.3943   12.7025 C.2     1  UNL1        0.2407
      3 O          19.1638  -22.3060   12.2263 O.2     1  UNL1       -0.2733
      4 N          19.6919  -23.8863   13.6911 N.am    1  UNL1       -0.2967
      5 H          19.4933  -24.7697   14.0777 H       1  UNL1        0.1499
      6 C          17.3781  -23.7172   10.7867 C.3     1  UNL1        0.0313
      7 C          17.7476  -24.1936   12.1931 C.3     1  UNL1        0.1511
      8 N          16.6030  -24.0072   13.0882 N.am    1  UNL1       -0.2640
      9 C          16.3625  -24.8993   14.0693 C.2     1  UNL1        0.4023
     10 O          17.0950  -25.8584   14.2114 O.2     1  UNL1       -0.2264
     11 H          16.0095  -23.2302   12.9731 H       1  UNL1        0.1532
     12 O          15.3105  -24.7280   14.8920 O.3     1  UNL1       -0.4297
     13 C          14.8416  -25.8968   15.6146 C.3     1  UNL1        0.2367
     14 C          13.7196  -26.5459   14.8460 C.ar    1  UNL1        0.0213
     15 C          13.9973  -27.5321   13.9181 C.ar    1  UNL1       -0.0007
     16 C          12.9676  -28.1310   13.2166 C.ar    1  UNL1       -0.0002
     17 C          11.6610  -27.7365   13.4358 C.ar    1  UNL1       -0.0000
     18 C          11.3837  -26.7464   14.3597 C.ar    1  UNL1       -0.0002
     19 C          12.4129  -26.1512   15.0650 C.ar    1  UNL1       -0.0007
     20 C          22.0749  -23.9504   14.1452 C.2     1  UNL1        0.2561
     21 O          23.0989  -23.5465   14.6544 O.2     1  UNL1       -0.2718
     22 N          22.0529  -25.1539   13.5390 N.am    1  UNL1       -0.2345
     23 H          21.2216  -25.4818   13.1258 H       1  UNL1        0.1728
     24 N          23.2130  -25.9383   13.4968 N.pl3   1  UNL1       -0.2616
     25 H          23.5972  -26.2943   14.3304 H       1  UNL1        0.1701
     26 C          23.8246  -26.2153   12.2720 C.ar    1  UNL1        0.0837
     27 C          24.8219  -25.3786   11.7868 C.ar    1  UNL1        0.0192
     28 C          25.4249  -25.6555   10.5759 C.ar    1  UNL1        0.0255
     29 C          25.0368  -26.7645    9.8461 C.ar    1  UNL1        0.1446
     30 C          24.0449  -27.5995   10.3262 C.ar    1  UNL1        0.0494
     31 C          23.4411  -27.3311   11.5390 C.ar    1  UNL1        0.1589
     32 N          22.3828  -28.2284   12.0547 N.pl3   1  UNL1        0.0590
     33 O          22.6449  -29.3868   12.3248 O.2     1  UNL1       -0.1261
     34 O          21.2500  -27.8084   12.2090 O.2     1  UNL1       -0.1261
     35 N          25.6854  -27.0583    8.5483 N.pl3   1  UNL1        0.0577
     36 O          26.5782  -26.3390    8.1370 O.2     1  UNL1       -0.1261
     37 O          25.3263  -28.0194    7.8918 O.2     1  UNL1       -0.1261
     38 C          20.5548  -22.6760   15.6332 C.3     1  UNL1        0.0554
     39 C          20.5770  -21.1718   15.7212 C.ar    1  UNL1       -0.0198
     40 C          20.1213  -20.5405   16.8638 C.ar    1  UNL1       -0.0011
     41 C          20.1458  -19.1619   16.9491 C.ar    1  UNL1        0.0363
     42 C          20.6180  -18.4104   15.8829 C.ar    1  UNL1        0.1337
     43 C          21.0695  -19.0460   14.7354 C.ar    1  UNL1        0.0363
     44 C          21.0478  -20.4250   14.6570 C.ar    1  UNL1       -0.0011
     45 O          20.6380  -17.0539   15.9623 O.3     1  UNL1       -0.5055
     46 H          20.3328  -16.6255   16.7377 H       1  UNL1        0.2922
@<TRIPOS>BOND
     1     6     7    1
     2     7     2    1
     3     7     8    1
     4     2     3    2
     5     2     4   am
     6     4     1    1
     7     1    38    1
     8     1    20    1
     9    38    39    1
    10    39    44   ar
    11    39    40   ar
    12    40    41   ar
    13    41    42   ar
    14    42    43   ar
    15    42    45    1
    16    43    44   ar
    17    20    21    2
    18    20    22   am
    19    22    24    1
    20    24    26    1
    21    26    31   ar
    22    26    27   ar
    23    27    28   ar
    24    28    29   ar
    25    29    30   ar
    26    29    35    1
    27    30    31   ar
    28    31    32    1
    29    32    33    2
    30    32    34    2
    31    35    36    2
    32    35    37    2
    33     8     9   am
    34     9    10    2
    35     9    12    1
    36    12    13    1
    37    13    14    1
    38    14    19   ar
    39    14    15   ar
    40    15    16   ar
    41    16    17   ar
    42    17    18   ar
    43    18    19   ar
    44     4     5    1
    45    45    46    1
    46    22    23    1
    47    24    25    1
    48     8    11    1
#	Name:			ZINC04018612
#	Creating user name:	trannguyen
#	Creation time:		Wed Dec  7 14:36:20 2022


#	Modifying user name:	trannguyen
#	Modification time:	Wed Dec  7 14:36:20 2022

@<TRIPOS>MOLECULE
ZINC04018612
 48 51 0 0 0
SMALL
GASTEIGER

@<TRIPOS>ATOM
      1 C          13.8675  -26.5079   15.1497 C.2     1  UNL1        0.2781
      2 O          13.3803  -25.5355   14.6029 O.2     1  UNL1       -0.2670
      3 N          15.1471  -26.4735   15.5713 N.am    1  UNL1       -0.2013
      4 H          15.5184  -27.2303   16.0798 H       1  UNL1        0.1776
      5 C          13.3536  -28.8479   14.6617 C.2     1  UNL1        0.0194
      6 C          13.0615  -27.7176   15.3497 C.2     1  UNL1        0.1063
      7 C          10.7597  -32.1962   14.8814 C.ar    1  UNL1        0.0479
      8 C          10.6309  -31.2861   13.8362 C.ar    1  UNL1        0.0145
      9 C          11.4703  -30.1982   13.7609 C.ar    1  UNL1        0.0013
     10 C          12.4549  -30.0073   14.7381 C.ar    1  UNL1        0.0015
     11 C          12.5840  -30.9281   15.7851 C.ar    1  UNL1        0.0013
     12 C          11.7373  -32.0108   15.8548 C.ar    1  UNL1        0.0145
     13 C           9.7497  -34.0183   16.2180 C.3     1  UNL1        0.1122
     14 N           9.9082  -33.2960   14.9533 N.pl3   1  UNL1       -0.3041
     15 C           9.1712  -33.7306   13.7641 C.3     1  UNL1        0.1122
     16 N          11.9912  -27.7040   16.2508 N.am    1  UNL1       -0.2768
     17 C          12.2272  -27.6582   17.5769 C.2     1  UNL1        0.2496
     18 O          13.3665  -27.5540   17.9883 O.2     1  UNL1       -0.2698
     19 H          11.0656  -27.7280   15.9160 H       1  UNL1        0.1553
     20 C          11.1010  -27.7345   18.5311 C.ar    1  UNL1        0.0537
     21 C          10.8801  -26.6977   19.4393 C.ar    1  UNL1        0.0045
     22 C           9.8240  -26.7729   20.3237 C.ar    1  UNL1        0.0001
     23 C           8.9911  -27.8777   20.3192 C.ar    1  UNL1        0.0000
     24 C           9.2079  -28.9114   19.4253 C.ar    1  UNL1        0.0001
     25 C          10.2569  -28.8464   18.5319 C.ar    1  UNL1        0.0045
     26 N          15.9489  -25.3606   15.2859 N.2     1  UNL1       -0.1773
     27 C          16.9024  -25.4550   14.4103 C.2     1  UNL1        0.1177
     28 C          17.7464  -24.2836   14.1100 C.ar    1  UNL1        0.0237
     29 C          17.5200  -23.5342   12.9525 C.ar    1  UNL1        0.0018
     30 C          18.3085  -22.4363   12.6776 C.ar    1  UNL1        0.0032
     31 C          19.3305  -22.0803   13.5386 C.ar    1  UNL1        0.0376
     32 C          19.5668  -22.8216   14.6885 C.ar    1  UNL1        0.1488
     33 C          18.7785  -23.9226   14.9779 C.ar    1  UNL1        0.0392
     34 O          20.5731  -22.4667   15.5306 O.3     1  UNL1       -0.4210
     35 C          20.2363  -22.1992   16.8078 C.2     1  UNL1        0.3459
     36 O          20.0226  -21.0539   17.1527 O.2     1  UNL1       -0.2445
     37 C          20.1271  -23.2966   17.7868 C.ar    1  UNL1        0.0823
     38 C          19.1146  -23.2773   18.7502 C.ar    1  UNL1        0.0467
     39 C          19.0109  -24.3103   19.6624 C.ar    1  UNL1        0.1757
     40 C          19.9212  -25.3635   19.6302 C.ar    1  UNL1        0.2061
     41 C          20.9344  -25.3825   18.6751 C.ar    1  UNL1        0.1757
     42 C          21.0392  -24.3553   17.7565 C.ar    1  UNL1        0.0467
     43 O          21.8219  -26.4126   18.6465 O.3     1  UNL1       -0.4683
     44 C          21.6199  -27.4156   17.6488 C.3     1  UNL1        0.2526
     45 O          19.8206  -26.3748   20.5322 O.3     1  UNL1       -0.4654
     46 C          18.9977  -27.4861   20.1718 C.3     1  UNL1        0.2528
     47 O          18.0223  -24.2952   20.5963 O.3     1  UNL1       -0.4683
     48 C          16.7027  -24.6130   20.1494 C.3     1  UNL1        0.2526
@<TRIPOS>BOND
     1    13    14    1
     2    14    15    1
     3    14     7    1
     4     7    12   ar
     5     7     8   ar
     6     8     9   ar
     7     9    10   ar
     8    10    11   ar
     9    10     5    1
    10    11    12   ar
    11     5     6    2
    12     6     1    1
    13     6    16    1
    14     1     2    2
    15     1     3   am
    16     3    26    1
    17    26    27    2
    18    27    28    1
    19    28    33   ar
    20    28    29   ar
    21    29    30   ar
    22    30    31   ar
    23    31    32   ar
    24    32    33   ar
    25    32    34    1
    26    34    35    1
    27    35    36    2
    28    35    37    1
    29    37    42   ar
    30    37    38   ar
    31    38    39   ar
    32    39    40   ar
    33    39    47    1
    34    40    41   ar
    35    40    45    1
    36    41    42   ar
    37    41    43    1
    38    43    44    1
    39    45    46    1
    40    47    48    1
    41    16    17   am
    42    17    18    2
    43    17    20    1
    44    20    25   ar
    45    20    21   ar
    46    21    22   ar
    47    22    23   ar
    48    23    24   ar
    49    24    25   ar
    50     3     4    1
    51    16    19    1
#	Name:			ZINC04027167
#	Creating user name:	trannguyen
#	Creation time:		Wed Dec  7 14:36:19 2022


#	Modifying user name:	trannguyen
#	Modification time:	Wed Dec  7 14:36:19 2022

@<TRIPOS>MOLECULE
ZINC04027167
 30 33 0 0 0
SMALL
GASTEIGER

@<TRIPOS>ATOM
      1 C          19.6065  -23.6852   15.2967 C.3     1  UNL1        0.0719
      2 C          18.7008  -23.7148   16.5202 C.3     1  UNL1        0.1463
      3 O          17.4561  -24.3448   16.2221 O.3     1  UNL1       -0.3514
      4 C          17.5791  -25.6839   15.7307 C.3     1  UNL1        0.1411
      5 C          18.3540  -25.6266   14.4019 C.3     1  UNL1        0.0496
      6 C          19.7606  -25.0918   14.7093 C.3     1  UNL1        0.0125
      7 C          20.5842  -25.0284   13.4213 C.3     1  UNL1        0.0006
      8 C          17.6454  -24.6429   13.5063 C.2     1  UNL1       -0.0458
      9 C          17.9581  -23.3889   13.4461 C.2     1  UNL1       -0.0346
     10 C          19.0659  -22.7467   14.2244 C.3     1  UNL1        0.0272
     11 C          20.1995  -22.3752   13.2663 C.3     1  UNL1        0.0049
     12 C          16.5189  -25.1439   12.6396 C.3     1  UNL1        0.0261
     13 C          16.2103  -26.2703   15.4989 C.ar    1  UNL1        0.0081
     14 C          16.0703  -27.6272   15.2740 C.ar    1  UNL1        0.0014
     15 C          14.8169  -28.1699   15.0613 C.ar    1  UNL1        0.0399
     16 C          13.6971  -27.3540   15.0726 C.ar    1  UNL1        0.1764
     17 C          13.8382  -25.9872   15.2991 C.ar    1  UNL1        0.1762
     18 C          15.0970  -25.4511   15.5172 C.ar    1  UNL1        0.0383
     19 O          12.6023  -25.4089   15.2617 O.3     1  UNL1       -0.4346
     20 C          11.7496  -26.3663   14.6062 C.3     1  UNL1        0.4294
     21 O          12.3728  -27.6322   14.8931 O.3     1  UNL1       -0.4346
     22 C          20.9827  -23.1845   15.7392 C.3     1  UNL1        0.2126
     23 O          20.8592  -22.4851   17.0057 O.3     1  UNL1       -0.4346
     24 N          21.6747  -20.4103   16.3175 N.am    1  UNL1       -0.2707
     25 C          20.7416  -21.1448   16.9549 C.2     1  UNL1        0.4016
     26 O          19.7944  -20.5976   17.4836 O.2     1  UNL1       -0.2264
     27 H          22.4423  -20.8537   15.8892 H       1  UNL1        0.1527
     28 C          21.5468  -18.9518   16.2622 C.3     1  UNL1        0.0927
     29 C          21.1521  -18.9877   13.7954 C.3     1  UNL1        0.0018
     30 C          22.0510  -18.4466   14.9089 C.3     1  UNL1        0.0214
@<TRIPOS>BOND
     1    29    30    1
     2    30    28    1
     3    28    24    1
     4    24    25   am
     5    25    26    2
     6    25    23    1
     7    23    22    1
     8    22     1    1
     9     1     6    1
    10     1    10    1
    11     1     2    1
    12     2     3    1
    13     3     4    1
    14     4     5    1
    15     4    13    1
    16     5     6    1
    17     5     8    1
    18     6     7    1
    19     8     9    2
    20     8    12    1
    21     9    10    1
    22    10    11    1
    23    13    18   ar
    24    13    14   ar
    25    14    15   ar
    26    15    16   ar
    27    16    21    1
    28    16    17   ar
    29    17    18   ar
    30    17    19    1
    31    19    20    1
    32    20    21    1
    33    24    27    1
#	Name:			ZINC04044940
#	Creating user name:	trannguyen
#	Creation time:		Wed Dec  7 14:36:20 2022


#	Modifying user name:	trannguyen
#	Modification time:	Wed Dec  7 14:36:20 2022

@<TRIPOS>MOLECULE
ZINC04044940
 37 40 0 0 0
SMALL
GASTEIGER

@<TRIPOS>ATOM
      1 C          19.0808  -24.5458   15.0244 C.ar    1  UNL1        0.2254
      2 N          19.8788  -25.2753   14.2504 N.ar    1  UNL1       -0.1808
      3 C          19.4307  -25.7471   13.0912 C.ar    1  UNL1        0.2220
      4 N          18.1847  -25.4901   12.7059 N.ar    1  UNL1       -0.1797
      5 C          17.3866  -24.7605   13.4797 C.ar    1  UNL1        0.2409
      6 N          17.8333  -24.2925   14.6416 N.ar    1  UNL1       -0.1794
      7 N          19.5463  -24.0559   16.2291 N.pl3   1  UNL1       -0.2824
      8 H          19.5937  -24.6465   17.0154 H       1  UNL1        0.1551
      9 C          20.7517  -20.0763   16.5356 C.ar    1  UNL1        0.1388
     10 C          20.1869  -20.7158   17.6294 C.ar    1  UNL1        0.0382
     11 C          19.7875  -22.0338   17.5286 C.ar    1  UNL1        0.0178
     12 C          19.9508  -22.7189   16.3319 C.ar    1  UNL1        0.0507
     13 C          20.5206  -22.0795   15.2389 C.ar    1  UNL1        0.0178
     14 C          20.9147  -20.7598   15.3397 C.ar    1  UNL1        0.0382
     15 C          22.0611  -18.3003   15.6485 C.3     1  UNL1        0.2525
     16 O          21.1452  -18.7784   16.6358 O.3     1  UNL1       -0.4714
     17 N          16.0920  -24.4939   13.0798 N.pl3   1  UNL1       -0.2043
     18 H          15.9273  -23.9500   12.2758 H       1  UNL1        0.1775
     19 N          15.0131  -24.9974   13.8181 N.2     1  UNL1       -0.1774
     20 C          14.8363  -26.2793   13.9169 C.2     1  UNL1        0.1176
     21 C          13.6428  -26.8084   14.6020 C.ar    1  UNL1        0.0216
     22 C          13.6097  -26.8797   15.9970 C.ar    1  UNL1        0.0071
     23 C          12.4896  -27.3711   16.6340 C.ar    1  UNL1        0.0196
     24 C          11.3991  -27.8044   15.8903 C.ar    1  UNL1       -0.0785
     25 C          11.4296  -27.7399   14.5029 C.ar    1  UNL1        0.0196
     26 C          12.5438  -27.2453   13.8579 C.ar    1  UNL1        0.0071
     27 BR          9.9416  -28.3316   13.4972 Br      1  UNL1       -0.0502
     28 O          10.2995  -28.2934   16.5218 O.co2   1  UNL1       -0.8722
     29 BR         12.4406  -27.4614   18.5223 Br      1  UNL1       -0.0502
     30 N          20.2592  -26.5043   12.2879 N.pl3   1  UNL1       -0.2964
     31 H          20.0345  -26.6412   11.3392 H       1  UNL1        0.1500
     32 C          21.4731  -27.1044   12.8470 C.3     1  UNL1        0.1550
     33 C          22.2784  -27.7335   11.7394 C.ar    1  UNL1        0.1428
     34 C          22.0224  -28.9181   11.1559 C.ar    1  UNL1        0.0379
     35 C          23.0215  -29.1161   10.1753 C.ar    1  UNL1        0.0435
     36 C          23.8282  -28.0407   10.2182 C.ar    1  UNL1        0.1792
     37 O          23.3699  -27.2038   11.1635 O.2     1  UNL1       -0.4530
@<TRIPOS>UNITY_ATOM_ATTR
28 1
charge -1
@<TRIPOS>BOND
     1    15    16    1
     2    16     9    1
     3     9    14   ar
     4     9    10   ar
     5    10    11   ar
     6    11    12   ar
     7    12    13   ar
     8    12     7    1
     9    13    14   ar
    10     7     1    1
    11     1     6   ar
    12     1     2   ar
    13     2     3   ar
    14     3     4   ar
    15     3    30    1
    16     4     5   ar
    17     5     6   ar
    18     5    17    1
    19    17    19    1
    20    19    20    2
    21    20    21    1
    22    21    26   ar
    23    21    22   ar
    24    22    23   ar
    25    23    24   ar
    26    23    29    1
    27    24    25   ar
    28    24    28    1
    29    25    26   ar
    30    25    27    1
    31    30    32    1
    32    32    33    1
    33    33    37   ar
    34    33    34   ar
    35    34    35   ar
    36    35    36   ar
    37    36    37   ar
    38     7     8    1
    39    17    18    1
    40    30    31    1
#	Name:			ZINC04044961
#	Creating user name:	trannguyen
#	Creation time:		Wed Dec  7 14:36:20 2022


#	Modifying user name:	trannguyen
#	Modification time:	Wed Dec  7 14:36:20 2022

@<TRIPOS>MOLECULE
ZINC04044961
 41 44 0 0 0
SMALL
GASTEIGER

@<TRIPOS>ATOM
      1 C          20.1670  -23.1788   13.7209 C.ar    1  UNL1        0.2254
      2 N          19.9640  -22.5447   14.8719 N.ar    1  UNL1       -0.1808
      3 C          20.9607  -22.4089   15.7409 C.ar    1  UNL1        0.2220
      4 N          22.1607  -22.9071   15.4594 N.ar    1  UNL1       -0.1797
      5 C          22.3639  -23.5413   14.3085 C.ar    1  UNL1        0.2409
      6 N          21.3653  -23.6818   13.4416 N.ar    1  UNL1       -0.1794
      7 N          19.1313  -23.3197   12.8180 N.pl3   1  UNL1       -0.2824
      8 H          19.2690  -23.0887   11.8709 H       1  UNL1        0.1551
      9 C          15.4214  -24.7238   14.1019 C.ar    1  UNL1        0.1388
     10 C          15.5168  -23.4892   13.4768 C.ar    1  UNL1        0.0382
     11 C          16.7452  -23.0235   13.0512 C.ar    1  UNL1        0.0178
     12 C          17.8851  -23.7911   13.2498 C.ar    1  UNL1        0.0507
     13 C          17.7881  -25.0289   13.8713 C.ar    1  UNL1        0.0178
     14 C          16.5598  -25.4911   14.3011 C.ar    1  UNL1        0.0382
     15 C          13.9970  -26.5936   14.4629 C.3     1  UNL1        0.2525
     16 O          14.2114  -25.1820   14.5202 O.3     1  UNL1       -0.4714
     17 N          23.6101  -24.0592   14.0162 N.pl3   1  UNL1       -0.2043
     18 H          24.4190  -23.5295   14.2010 H       1  UNL1        0.1775
     19 N          23.7234  -25.3385   13.4565 N.2     1  UNL1       -0.1774
     20 C          24.3929  -25.5094   12.3580 C.2     1  UNL1        0.1177
     21 C          24.4227  -26.8341   11.7112 C.ar    1  UNL1        0.0244
     22 C          23.2279  -27.4875   11.3978 C.ar    1  UNL1        0.0417
     23 C          23.2612  -28.7291   10.7911 C.ar    1  UNL1        0.1730
     24 C          24.4839  -29.3266   10.4931 C.ar    1  UNL1        0.1799
     25 C          25.6707  -28.6784   10.8038 C.ar    1  UNL1        0.0716
     26 C          25.6452  -27.4362   11.4049 C.ar    1  UNL1        0.0115
     27 BR         27.3267  -29.4958   10.3970 Br      1  UNL1       -0.0457
     28 O          22.1001  -29.3673   10.4845 O.3     1  UNL1       -0.4684
     29 C          21.3911  -29.9784   11.5644 C.3     1  UNL1        0.2526
     30 O          24.5143  -30.5481    9.8967 O.3     1  UNL1       -0.4557
     31 C          24.4856  -31.6901   10.7553 C.3     1  UNL1        0.3091
     32 C          24.9887  -32.8654   10.0256 C.1     1  UNL1        0.1218
     33 N          25.3769  -33.7724    9.4625 N.1     1  UNL1       -0.1920
     34 N          20.7497  -21.7510   16.9358 N.pl3   1  UNL1       -0.2964
     35 H          21.0025  -22.1799   17.7851 H       1  UNL1        0.1500
     36 C          20.1494  -20.4146   16.9401 C.3     1  UNL1        0.1550
     37 C          21.0063  -19.4765   16.1297 C.ar    1  UNL1        0.1428
     38 C          20.8290  -19.1726   14.8314 C.ar    1  UNL1        0.0379
     39 C          21.8522  -18.2620   14.4805 C.ar    1  UNL1        0.0435
     40 C          22.5933  -18.0640   15.5855 C.ar    1  UNL1        0.1792
     41 O          22.0729  -18.7977   16.5827 O.2     1  UNL1       -0.4530
@<TRIPOS>BOND
     1    15    16    1
     2    16     9    1
     3     9    14   ar
     4     9    10   ar
     5    10    11   ar
     6    11    12   ar
     7    12    13   ar
     8    12     7    1
     9    13    14   ar
    10     7     1    1
    11     1     6   ar
    12     1     2   ar
    13     2     3   ar
    14     3     4   ar
    15     3    34    1
    16     4     5   ar
    17     5     6   ar
    18     5    17    1
    19    17    19    1
    20    19    20    2
    21    20    21    1
    22    21    26   ar
    23    21    22   ar
    24    22    23   ar
    25    23    24   ar
    26    23    28    1
    27    24    25   ar
    28    24    30    1
    29    25    26   ar
    30    25    27    1
    31    30    31    1
    32    31    32    1
    33    32    33    3
    34    28    29    1
    35    34    36    1
    36    36    37    1
    37    37    41   ar
    38    37    38   ar
    39    38    39   ar
    40    39    40   ar
    41    40    41   ar
    42     7     8    1
    43    17    18    1
    44    34    35    1
#	Name:			ZINC04048486
#	Creating user name:	trannguyen
#	Creation time:		Wed Dec  7 14:36:20 2022


#	Modifying user name:	trannguyen
#	Modification time:	Wed Dec  7 14:36:20 2022

@<TRIPOS>MOLECULE
ZINC04048486
 41 43 0 0 0
SMALL
GASTEIGER

@<TRIPOS>ATOM
      1 C           9.8398  -28.4466   13.6496 C.ar    1  UNL1        0.0025
      2 C          10.8500  -27.5084   13.5807 C.ar    1  UNL1        0.0148
      3 C          11.5696  -27.1757   14.7208 C.ar    1  UNL1        0.0528
      4 C          11.2596  -27.7937   15.9427 C.ar    1  UNL1        0.0432
      5 C          10.2377  -28.7451   15.9950 C.ar    1  UNL1        0.0915
      6 C           9.5347  -29.0621   14.8528 C.ar    1  UNL1        0.0170
      7 N          12.5881  -26.2306   14.6539 N.am    1  UNL1       -0.2803
      8 C          13.8518  -26.6192   14.3925 C.2     1  UNL1        0.2496
      9 O          14.0882  -27.7834   14.1287 O.2     1  UNL1       -0.2698
     10 H          12.3857  -25.2779   14.7974 H       1  UNL1        0.1552
     11 C          14.9408  -25.6402   14.4257 C.2     1  UNL1        0.0580
     12 C          15.7535  -25.4989   13.3585 C.2     1  UNL1        0.0047
     13 C          16.8473  -24.5157   13.3920 C.ar    1  UNL1        0.0001
     14 C          17.1080  -23.7204   12.2696 C.ar    1  UNL1        0.0000
     15 C          18.1200  -22.8044   12.3019 C.ar    1  UNL1        0.0000
     16 C          18.9040  -22.6677   13.4545 C.ar    1  UNL1        0.0001
     17 C          18.6464  -23.4671   14.5753 C.ar    1  UNL1        0.0000
     18 C          17.6311  -24.3796   14.5440 C.ar    1  UNL1        0.0000
     19 C          19.9966  -21.6850   13.4880 C.2     1  UNL1        0.0042
     20 C          20.4780  -21.2489   14.6747 C.2     1  UNL1        0.0542
     21 C          21.5289  -20.3038   14.7069 C.2     1  UNL1        0.2537
     22 O          22.5097  -20.5092   15.3935 O.2     1  UNL1       -0.2739
     23 CL         21.4176  -18.8497   13.7651 Cl      1  UNL1       -0.0382
     24 S           9.8435  -29.5334   17.5207 S.O2    1  UNL1       -0.0576
     25 O          11.0648  -29.6719   18.2337 O.2     1  UNL1       -0.1842
     26 O           9.0172  -30.6446   17.2021 O.2     1  UNL1       -0.1842
     27 N           8.9058  -28.4797   18.3883 N.pl3   1  UNL1       -0.5335
     28 C           8.8129  -28.6073   19.7719 C.ar    1  UNL1       -0.0777
     29 C           8.3202  -29.7823   20.3291 C.ar    1  UNL1       -0.0209
     30 C           8.2274  -29.9131   21.6965 C.ar    1  UNL1       -0.0005
     31 C           8.6289  -28.8635   22.5283 C.ar    1  UNL1        0.0169
     32 C           9.1241  -27.6811   21.9686 C.ar    1  UNL1        0.0359
     33 C           9.2199  -27.5574   20.5974 C.ar    1  UNL1        0.1117
     34 O           9.7063  -26.4110   20.0503 O.3     1  UNL1       -0.5073
     35 H           9.7713  -26.3271   19.1193 H       1  UNL1        0.2921
     36 C           8.5300  -29.0024   23.9922 C.2     1  UNL1        0.0730
     37 O           9.4191  -29.5522   24.6119 O.co2   1  UNL1       -0.5446
     38 O           7.4536  -28.5196   24.6436 O.co2   1  UNL1       -0.5446
     39 C          12.0109  -27.4451   17.1616 C.2     1  UNL1        0.0753
     40 O          13.0923  -27.9564   17.3758 O.co2   1  UNL1       -0.5445
     41 O          11.4989  -26.5593   18.0386 O.co2   1  UNL1       -0.5445
@<TRIPOS>UNITY_ATOM_ATTR
27 1
charge -1
38 1
charge -1
41 1
charge -1
@<TRIPOS>BOND
     1     1     6   ar
     2     1     2   ar
     3     2     3   ar
     4     3     4   ar
     5     3     7    1
     6     4     5   ar
     7     4    39    1
     8     5     6   ar
     9     5    24    1
    10    24    25    2
    11    24    26    2
    12    24    27    1
    13    27    28    1
    14    28    33   ar
    15    28    29   ar
    16    29    30   ar
    17    30    31   ar
    18    31    32   ar
    19    31    36    1
    20    32    33   ar
    21    33    34    1
    22    36    37   ar
    23    36    38   ar
    24    39    40   ar
    25    39    41   ar
    26     7     8   am
    27     8     9    2
    28     8    11    1
    29    11    12    2
    30    12    13    1
    31    13    18   ar
    32    13    14   ar
    33    14    15   ar
    34    15    16   ar
    35    16    17   ar
    36    16    19    1
    37    17    18   ar
    38    19    20    2
    39    20    21    1
    40    21    22    2
    41    21    23    1
    42    34    35    1
    43     7    10    1
#	Name:			ZINC04068527
#	Creating user name:	trannguyen
#	Creation time:		Wed Dec  7 14:36:20 2022


#	Modifying user name:	trannguyen
#	Modification time:	Wed Dec  7 14:36:20 2022

@<TRIPOS>MOLECULE
ZINC04068527
 46 49 0 0 0
SMALL
GASTEIGER

@<TRIPOS>ATOM
      1 C          15.9627  -25.0722   15.3491 C.ar    1  UNL1        0.0471
      2 C          16.6150  -25.4904   16.5026 C.ar    1  UNL1        0.0144
      3 C          17.9710  -25.2798   16.6448 C.ar    1  UNL1        0.0025
      4 C          18.6932  -24.6520   15.6417 C.ar    1  UNL1        0.0170
      5 C          18.0646  -24.2304   14.4912 C.ar    1  UNL1        0.0915
      6 C          16.6921  -24.4406   14.3292 C.ar    1  UNL1        0.0428
      7 C          16.0146  -23.9976   13.0986 C.2     1  UNL1        0.0752
      8 O          15.3662  -22.9698   13.0983 O.co2   1  UNL1       -0.5445
      9 O          16.1137  -24.7322   11.9731 O.co2   1  UNL1       -0.5445
     10 S          18.9908  -23.4330   13.2218 S.O2    1  UNL1       -0.0576
     11 O          19.1373  -24.3783   12.1711 O.2     1  UNL1       -0.1842
     12 O          18.3936  -22.1590   13.0227 O.2     1  UNL1       -0.1842
     13 N          20.5084  -23.1554   13.8237 N.pl3   1  UNL1       -0.5335
     14 C          20.8266  -21.9119   14.3637 C.ar    1  UNL1       -0.0777
     15 C          20.7107  -21.6996   15.7331 C.ar    1  UNL1       -0.0209
     16 C          21.0252  -20.4719   16.2714 C.ar    1  UNL1       -0.0005
     17 C          21.4621  -19.4355   15.4410 C.ar    1  UNL1        0.0169
     18 C          21.5785  -19.6481   14.0634 C.ar    1  UNL1        0.0359
     19 C          21.2670  -20.8821   13.5299 C.ar    1  UNL1        0.1117
     20 O          21.3845  -21.0938   12.1914 O.3     1  UNL1       -0.5073
     21 H          21.1729  -21.9317   11.8293 H       1  UNL1        0.2921
     22 C          21.7990  -18.1209   16.0162 C.2     1  UNL1        0.0730
     23 O          22.9214  -17.9087   16.4305 O.co2   1  UNL1       -0.5446
     24 O          20.8622  -17.1544   16.0827 O.co2   1  UNL1       -0.5446
     25 N          14.5982  -25.2830   15.2036 N.pl3   1  UNL1       -0.3290
     26 H          13.9575  -24.6340   15.5745 H       1  UNL1        0.1471
     27 C          14.1117  -26.4712   14.4980 C.3     1  UNL1        0.1143
     28 C          11.8590  -28.9055   17.1900 C.ar    1  UNL1       -0.0111
     29 C          13.1068  -29.3198   16.7627 C.ar    1  UNL1       -0.0040
     30 C          13.8340  -28.5340   15.8883 C.ar    1  UNL1       -0.0029
     31 C          13.3174  -27.3296   15.4484 C.ar    1  UNL1       -0.0027
     32 C          12.0720  -26.9129   15.8798 C.ar    1  UNL1       -0.0029
     33 C          11.3430  -27.7007   16.7508 C.ar    1  UNL1       -0.0040
     34 C          11.0643  -29.7645   18.1395 C.3     1  UNL1        0.1359
     35 C           9.8434  -30.2960   17.4340 C.2     1  UNL1        0.3219
     36 O           8.9372  -29.5493   17.1492 O.2     1  UNL1       -0.2497
     37 O           9.7626  -31.5990   17.1218 O.3     1  UNL1       -0.4397
     38 C          10.8092  -32.1395   16.2727 C.3     1  UNL1        0.2766
     39 C          10.4219  -31.9668   14.8265 C.2     1  UNL1        0.2170
     40 O           9.5994  -32.7044   14.3269 O.2     1  UNL1       -0.2874
     41 C          12.2100  -28.9000   12.5048 C.ar    1  UNL1        0.0000
     42 C          10.9274  -28.7318   12.9969 C.ar    1  UNL1        0.0001
     43 C          10.3392  -29.7241   13.7523 C.ar    1  UNL1        0.0030
     44 C          11.0422  -30.9030   14.0207 C.ar    1  UNL1        0.0385
     45 C          12.3398  -31.0631   13.5244 C.ar    1  UNL1        0.0030
     46 C          12.9123  -30.0635   12.7664 C.ar    1  UNL1        0.0001
@<TRIPOS>UNITY_ATOM_ATTR
9 1
charge -1
13 1
charge -1
24 1
charge -1
@<TRIPOS>BOND
     1    41    46   ar
     2    41    42   ar
     3    42    43   ar
     4    43    44   ar
     5    44    45   ar
     6    44    39    1
     7    45    46   ar
     8    39    40    2
     9    39    38    1
    10    38    37    1
    11    37    35    1
    12    35    36    2
    13    35    34    1
    14    34    28    1
    15    28    33   ar
    16    28    29   ar
    17    29    30   ar
    18    30    31   ar
    19    31    32   ar
    20    31    27    1
    21    32    33   ar
    22    27    25    1
    23    25     1    1
    24     1     6   ar
    25     1     2   ar
    26     2     3   ar
    27     3     4   ar
    28     4     5   ar
    29     5     6   ar
    30     5    10    1
    31     6     7    1
    32     7     8   ar
    33     7     9   ar
    34    10    11    2
    35    10    12    2
    36    10    13    1
    37    13    14    1
    38    14    19   ar
    39    14    15   ar
    40    15    16   ar
    41    16    17   ar
    42    17    18   ar
    43    17    22    1
    44    18    19   ar
    45    19    20    1
    46    22    23   ar
    47    22    24   ar
    48    25    26    1
    49    20    21    1
#	Name:			ZINC04068624
#	Creating user name:	trannguyen
#	Creation time:		Wed Dec  7 14:36:19 2022


#	Modifying user name:	trannguyen
#	Modification time:	Wed Dec  7 14:36:19 2022

@<TRIPOS>MOLECULE
ZINC04068624
 45 47 0 0 0
SMALL
GASTEIGER

@<TRIPOS>ATOM
      1 C          15.6976  -25.0069   14.9724 C.ar    1  UNL1        0.0472
      2 C          16.2306  -25.4470   16.1780 C.ar    1  UNL1        0.0144
      3 C          17.5730  -25.2739   16.4443 C.ar    1  UNL1        0.0025
      4 C          18.4001  -24.6616   15.5154 C.ar    1  UNL1        0.0170
      5 C          17.8908  -24.2191   14.3149 C.ar    1  UNL1        0.0915
      6 C          16.5315  -24.3819   14.0315 C.ar    1  UNL1        0.0428
      7 C          15.9789  -23.9060   12.7518 C.2     1  UNL1        0.0752
      8 O          15.3304  -22.8789   12.7145 O.co2   1  UNL1       -0.5445
      9 O          16.1924  -24.6095   11.6223 O.co2   1  UNL1       -0.5445
     10 S          18.9496  -23.4419   13.1404 S.O2    1  UNL1       -0.0576
     11 O          18.3974  -22.1582   12.8826 O.2     1  UNL1       -0.1842
     12 O          19.1804  -24.3929   12.1099 O.2     1  UNL1       -0.1842
     13 N          20.4065  -23.1894   13.8862 N.pl3   1  UNL1       -0.5335
     14 C          20.7112  -21.9368   14.4130 C.ar    1  UNL1       -0.0777
     15 C          20.5047  -21.6835   15.7646 C.ar    1  UNL1       -0.0209
     16 C          20.8054  -20.4468   16.2899 C.ar    1  UNL1       -0.0005
     17 C          21.3195  -19.4425   15.4642 C.ar    1  UNL1        0.0169
     18 C          21.5270  -19.6965   14.1045 C.ar    1  UNL1        0.0359
     19 C          21.2289  -20.9395   13.5842 C.ar    1  UNL1        0.1117
     20 O          21.4349  -21.1914   12.2636 O.3     1  UNL1       -0.5073
     21 H          21.2324  -22.0354   11.9105 H       1  UNL1        0.2921
     22 C          21.6417  -18.1184   16.0254 C.2     1  UNL1        0.0730
     23 O          20.7765  -17.2700   16.1163 O.co2   1  UNL1       -0.5446
     24 O          22.8960  -17.8484   16.4379 O.co2   1  UNL1       -0.5446
     25 N          14.3471  -25.1803   14.7017 N.pl3   1  UNL1       -0.3263
     26 H          13.7429  -24.4030   14.6938 H       1  UNL1        0.1472
     27 C          13.8209  -26.5199   14.4279 C.3     1  UNL1        0.1574
     28 C          12.3757  -26.5878   14.8496 C.2     1  UNL1        0.1927
     29 O          11.6816  -25.5945   14.7981 O.2     1  UNL1       -0.2895
     30 C          11.3421  -30.1824   14.9632 C.ar    1  UNL1        0.0107
     31 C          11.8738  -29.0001   14.5168 C.ar    1  UNL1        0.0016
     32 C          11.8079  -27.8569   15.3229 C.ar    1  UNL1        0.0360
     33 C          11.2037  -27.9293   16.5841 C.ar    1  UNL1        0.0016
     34 C          10.6702  -29.1152   17.0190 C.ar    1  UNL1        0.0107
     35 C          10.7384  -30.2477   16.2145 C.ar    1  UNL1        0.1255
     36 O          10.2138  -31.4200   16.6515 O.3     1  UNL1       -0.5061
     37 H          10.2589  -32.1839   16.1109 H       1  UNL1        0.2922
     38 C          11.8001  -31.0129   12.6721 C.3     1  UNL1        0.0045
     39 C          11.4125  -31.4135   14.0969 C.3     1  UNL1        0.0218
     40 C          12.4618  -32.3741   14.6599 C.3     1  UNL1        0.0045
     41 C          10.0469  -32.1033   14.0792 C.3     1  UNL1        0.0045
     42 C          10.0146  -29.1933   18.3737 C.3     1  UNL1        0.0218
     43 C           8.5209  -29.4763   18.2018 C.3     1  UNL1        0.0045
     44 C          10.6567  -30.3192   19.1868 C.3     1  UNL1        0.0045
     45 C          10.2008  -27.8640   19.1078 C.3     1  UNL1        0.0045
@<TRIPOS>UNITY_ATOM_ATTR
9 1
charge -1
13 1
charge -1
24 1
charge -1
@<TRIPOS>BOND
     1    38    39    1
     2    39    40    1
     3    39    41    1
     4    39    30    1
     5    30    35   ar
     6    30    31   ar
     7    31    32   ar
     8    32    33   ar
     9    32    28    1
    10    33    34   ar
    11    34    35   ar
    12    34    42    1
    13    35    36    1
    14    42    43    1
    15    42    44    1
    16    42    45    1
    17    28    29    2
    18    28    27    1
    19    27    25    1
    20    25     1    1
    21     1     6   ar
    22     1     2   ar
    23     2     3   ar
    24     3     4   ar
    25     4     5   ar
    26     5     6   ar
    27     5    10    1
    28     6     7    1
    29     7     8   ar
    30     7     9   ar
    31    10    11    2
    32    10    12    2
    33    10    13    1
    34    13    14    1
    35    14    19   ar
    36    14    15   ar
    37    15    16   ar
    38    16    17   ar
    39    17    18   ar
    40    17    22    1
    41    18    19   ar
    42    19    20    1
    43    22    23   ar
    44    22    24   ar
    45    36    37    1
    46    25    26    1
    47    20    21    1
#	Name:			ZINC04068803
#	Creating user name:	trannguyen
#	Creation time:		Wed Dec  7 14:36:19 2022


#	Modifying user name:	trannguyen
#	Modification time:	Wed Dec  7 14:36:19 2022

@<TRIPOS>MOLECULE
ZINC04068803
 39 41 0 0 0
SMALL
GASTEIGER

@<TRIPOS>ATOM
      1 C          15.8756  -24.8820   15.3591 C.ar    1  UNL1        0.0472
      2 C          16.5021  -25.2797   16.5340 C.ar    1  UNL1        0.0144
      3 C          17.8688  -25.1479   16.6673 C.ar    1  UNL1        0.0025
      4 C          18.6275  -24.6196   15.6343 C.ar    1  UNL1        0.0170
      5 C          18.0251  -24.2203   14.4620 C.ar    1  UNL1        0.0915
      6 C          16.6404  -24.3420   14.3128 C.ar    1  UNL1        0.0428
      7 C          15.9888  -23.9117   13.0639 C.2     1  UNL1        0.0752
      8 O          15.3569  -22.8741   13.0345 O.co2   1  UNL1       -0.5445
      9 O          16.0932  -24.6687   11.9539 O.co2   1  UNL1       -0.5445
     10 S          18.9975  -23.5499   13.1545 S.O2    1  UNL1       -0.0576
     11 O          18.4230  -22.2928   12.8245 O.2     1  UNL1       -0.1842
     12 O          19.1616  -24.5873   12.1973 O.2     1  UNL1       -0.1842
     13 N          20.5008  -23.2353   13.7738 N.pl3   1  UNL1       -0.5335
     14 C          20.7830  -21.9836   14.3149 C.ar    1  UNL1       -0.0777
     15 C          20.6045  -21.7593   15.6756 C.ar    1  UNL1       -0.0209
     16 C          20.8831  -20.5236   16.2150 C.ar    1  UNL1       -0.0005
     17 C          21.3466  -19.4908   15.3944 C.ar    1  UNL1        0.0169
     18 C          21.5260  -19.7155   14.0256 C.ar    1  UNL1        0.0359
     19 C          21.2503  -20.9576   13.4911 C.ar    1  UNL1        0.1117
     20 O          21.4291  -21.1809   12.1614 O.3     1  UNL1       -0.5073
     21 H          21.2419  -22.0243   11.7986 H       1  UNL1        0.2921
     22 C          21.6452  -18.1676   15.9707 C.2     1  UNL1        0.0730
     23 O          20.7742  -17.3227   16.0360 O.co2   1  UNL1       -0.5446
     24 O          22.8841  -17.8947   16.4254 O.co2   1  UNL1       -0.5446
     25 N          14.5004  -25.0140   15.2223 N.pl3   1  UNL1       -0.3263
     26 H          13.9402  -24.2156   15.0882 H       1  UNL1        0.1472
     27 C          13.8827  -26.3413   15.2776 C.3     1  UNL1        0.1574
     28 C          12.4603  -26.2542   14.7875 C.2     1  UNL1        0.1927
     29 O          11.8377  -25.2215   14.9137 O.2     1  UNL1       -0.2895
     30 C           9.9946  -28.3959   12.9429 C.ar    1  UNL1        0.0000
     31 C          10.5790  -27.2973   13.5374 C.ar    1  UNL1        0.0029
     32 C          11.8270  -27.4228   14.1557 C.ar    1  UNL1        0.0364
     33 C          12.4678  -28.6659   14.1753 C.ar    1  UNL1        0.0067
     34 C          11.8681  -29.7559   13.5811 C.ar    1  UNL1        0.0715
     35 C          10.6349  -29.6225   12.9666 C.ar    1  UNL1        0.0039
     36 C          12.5567  -31.0963   13.6011 C.3     1  UNL1        0.4186
     37 F          12.5766  -31.6296   12.3079 F       1  UNL1       -0.1659
     38 F          13.8686  -30.9397   14.0612 F       1  UNL1       -0.1659
     39 F          11.8641  -31.9636   14.4526 F       1  UNL1       -0.1659
@<TRIPOS>UNITY_ATOM_ATTR
9 1
charge -1
13 1
charge -1
24 1
charge -1
@<TRIPOS>BOND
     1    30    35   ar
     2    30    31   ar
     3    31    32   ar
     4    32    33   ar
     5    32    28    1
     6    33    34   ar
     7    34    35   ar
     8    34    36    1
     9    36    37    1
    10    36    38    1
    11    36    39    1
    12    28    29    2
    13    28    27    1
    14    27    25    1
    15    25     1    1
    16     1     6   ar
    17     1     2   ar
    18     2     3   ar
    19     3     4   ar
    20     4     5   ar
    21     5     6   ar
    22     5    10    1
    23     6     7    1
    24     7     8   ar
    25     7     9   ar
    26    10    11    2
    27    10    12    2
    28    10    13    1
    29    13    14    1
    30    14    19   ar
    31    14    15   ar
    32    15    16   ar
    33    16    17   ar
    34    17    18   ar
    35    17    22    1
    36    18    19   ar
    37    19    20    1
    38    22    23   ar
    39    22    24   ar
    40    25    26    1
    41    20    21    1
#	Name:			ZINC04068807
#	Creating user name:	trannguyen
#	Creation time:		Wed Dec  7 14:36:20 2022


#	Modifying user name:	trannguyen
#	Modification time:	Wed Dec  7 14:36:20 2022

@<TRIPOS>MOLECULE
ZINC04068807
 42 45 0 0 0
SMALL
GASTEIGER

@<TRIPOS>ATOM
      1 C          15.6391  -25.0616   15.0814 C.ar    1  UNL1        0.0472
      2 C          16.1743  -25.5288   16.2756 C.ar    1  UNL1        0.0144
      3 C          17.5206  -25.3774   16.5358 C.ar    1  UNL1        0.0025
      4 C          18.3493  -24.7600   15.6117 C.ar    1  UNL1        0.0170
      5 C          17.8377  -24.2903   14.4224 C.ar    1  UNL1        0.0915
      6 C          16.4745  -24.4307   14.1458 C.ar    1  UNL1        0.0428
      7 C          15.9196  -23.9258   12.8784 C.2     1  UNL1        0.0752
      8 O          15.2918  -22.8853   12.8616 O.co2   1  UNL1       -0.5445
      9 O          16.1080  -24.6176   11.7372 O.co2   1  UNL1       -0.5445
     10 S          18.8987  -23.5069   13.2540 S.O2    1  UNL1       -0.0576
     11 O          18.3530  -22.2177   13.0105 O.2     1  UNL1       -0.1842
     12 O          19.1223  -24.4484   12.2134 O.2     1  UNL1       -0.1842
     13 N          20.3581  -23.2700   13.9998 N.pl3   1  UNL1       -0.5335
     14 C          20.6912  -22.0115   14.4943 C.ar    1  UNL1       -0.0777
     15 C          20.4943  -21.7200   15.8397 C.ar    1  UNL1       -0.0209
     16 C          20.8230  -20.4773   16.3330 C.ar    1  UNL1       -0.0005
     17 C          21.3559  -19.5052   15.4812 C.ar    1  UNL1        0.0169
     18 C          21.5538  -19.7975   14.1277 C.ar    1  UNL1        0.0359
     19 C          21.2276  -21.0465   13.6395 C.ar    1  UNL1        0.1117
     20 O          21.4241  -21.3357   12.3251 O.3     1  UNL1       -0.5073
     21 H          21.2025  -22.1837   11.9936 H       1  UNL1        0.2921
     22 C          21.7082  -18.1747   16.0082 C.2     1  UNL1        0.0730
     23 O          22.8451  -17.9465   16.3717 O.co2   1  UNL1       -0.5446
     24 O          20.7693  -17.2110   16.0871 O.co2   1  UNL1       -0.5446
     25 N          14.2845  -25.2128   14.8173 N.pl3   1  UNL1       -0.3266
     26 H          13.7121  -24.4189   14.7108 H       1  UNL1        0.1472
     27 C          13.7069  -26.5537   14.6973 C.3     1  UNL1        0.1534
     28 C          12.2069  -26.4668   14.8142 C.2     1  UNL1        0.1780
     29 O          11.6529  -25.4003   14.6962 O.2     1  UNL1       -0.2936
     30 C          11.3983  -27.7107   15.0785 C.3     1  UNL1        0.1037
     31 C          13.4761  -31.1128   13.5437 C.ar    1  UNL1       -0.0000
     32 C          13.5804  -30.7853   14.8826 C.ar    1  UNL1       -0.0003
     33 C          12.9082  -29.6842   15.3792 C.ar    1  UNL1       -0.0035
     34 C          12.1314  -28.9108   14.5370 C.ar    1  UNL1       -0.0114
     35 C          12.0225  -29.2417   13.1992 C.ar    1  UNL1       -0.0035
     36 C          12.6989  -30.3398   12.7016 C.ar    1  UNL1       -0.0003
     37 C          11.1968  -27.8730   16.5632 C.ar    1  UNL1       -0.0114
     38 C          10.2610  -28.7720   17.0394 C.ar    1  UNL1       -0.0035
     39 C          10.0795  -28.9244   18.4013 C.ar    1  UNL1       -0.0003
     40 C          10.8268  -28.1704   19.2868 C.ar    1  UNL1       -0.0000
     41 C          11.7586  -27.2673   18.8104 C.ar    1  UNL1       -0.0003
     42 C          11.9439  -27.1187   17.4487 C.ar    1  UNL1       -0.0035
@<TRIPOS>UNITY_ATOM_ATTR
9 1
charge -1
13 1
charge -1
24 1
charge -1
@<TRIPOS>BOND
     1    31    36   ar
     2    31    32   ar
     3    32    33   ar
     4    33    34   ar
     5    34    35   ar
     6    34    30    1
     7    35    36   ar
     8    30    37    1
     9    30    28    1
    10    37    42   ar
    11    37    38   ar
    12    38    39   ar
    13    39    40   ar
    14    40    41   ar
    15    41    42   ar
    16    28    29    2
    17    28    27    1
    18    27    25    1
    19    25     1    1
    20     1     6   ar
    21     1     2   ar
    22     2     3   ar
    23     3     4   ar
    24     4     5   ar
    25     5     6   ar
    26     5    10    1
    27     6     7    1
    28     7     8   ar
    29     7     9   ar
    30    10    11    2
    31    10    12    2
    32    10    13    1
    33    13    14    1
    34    14    19   ar
    35    14    15   ar
    36    15    16   ar
    37    16    17   ar
    38    17    18   ar
    39    17    22    1
    40    18    19   ar
    41    19    20    1
    42    22    23   ar
    43    22    24   ar
    44    25    26    1
    45    20    21    1
#	Name:			ZINC04068896
#	Creating user name:	trannguyen
#	Creation time:		Wed Dec  7 14:36:19 2022


#	Modifying user name:	trannguyen
#	Modification time:	Wed Dec  7 14:36:19 2022

@<TRIPOS>MOLECULE
ZINC04068896
 45 49 0 0 0
SMALL
GASTEIGER

@<TRIPOS>ATOM
      1 C          17.3123  -24.8653   15.8682 C.ar    1  UNL1        0.0469
      2 C          17.5312  -25.4487   17.1103 C.ar    1  UNL1        0.0144
      3 C          16.5580  -26.2412   17.6829 C.ar    1  UNL1        0.0025
      4 C          15.3548  -26.4582   17.0294 C.ar    1  UNL1        0.0170
      5 C          15.1210  -25.8933   15.7954 C.ar    1  UNL1        0.0915
      6 C          16.0968  -25.0874   15.2012 C.ar    1  UNL1        0.0428
      7 C          15.8516  -24.4758   13.8840 C.2     1  UNL1        0.0752
      8 O          16.1328  -25.0837   12.8701 O.co2   1  UNL1       -0.5445
      9 O          15.3153  -23.2421   13.8032 O.co2   1  UNL1       -0.5445
     10 S          13.5911  -26.1797   14.9697 S.O2    1  UNL1       -0.0576
     11 O          13.8954  -26.9205   13.7959 O.2     1  UNL1       -0.1842
     12 O          12.9120  -24.9321   14.9285 O.2     1  UNL1       -0.1842
     13 N          12.6911  -27.1767   15.9385 N.pl3   1  UNL1       -0.5335
     14 C          12.1520  -28.3511   15.4191 C.ar    1  UNL1       -0.0777
     15 C          12.6569  -29.5832   15.8198 C.ar    1  UNL1       -0.0209
     16 C          12.1230  -30.7469   15.3131 C.ar    1  UNL1       -0.0005
     17 C          11.0789  -30.6913   14.3850 C.ar    1  UNL1        0.0169
     18 C          10.5743  -29.4520   13.9772 C.ar    1  UNL1        0.0359
     19 C          11.1093  -28.2890   14.4925 C.ar    1  UNL1        0.1117
     20 O          10.6212  -27.0824   14.0975 O.3     1  UNL1       -0.5073
     21 H          10.9845  -26.2928   14.4475 H       1  UNL1        0.2921
     22 C          10.5104  -31.9361   13.8378 C.2     1  UNL1        0.0730
     23 O           9.4018  -32.2989   14.1785 O.co2   1  UNL1       -0.5446
     24 O          11.2200  -32.6719   12.9597 O.co2   1  UNL1       -0.5446
     25 N          18.2898  -24.0669   15.2900 N.pl3   1  UNL1       -0.3327
     26 H          18.0693  -23.1536   14.9964 H       1  UNL1        0.1468
     27 C          19.2068  -24.4019   12.5450 C.3     1  UNL1        0.0061
     28 C          20.1578  -24.7698   13.6858 C.3     1  UNL1        0.0380
     29 C          19.8020  -25.9912   14.5368 C.3     1  UNL1        0.0266
     30 C          19.6497  -24.5837   15.1168 C.3     1  UNL1        0.0867
     31 C          21.6183  -24.5043   13.4259 C.ar    1  UNL1       -0.0212
     32 C          22.0533  -23.2158   13.1786 C.ar    1  UNL1       -0.0042
     33 C          23.3939  -22.9716   12.9456 C.ar    1  UNL1       -0.0003
     34 C          24.2977  -24.0176   12.9489 C.ar    1  UNL1       -0.0000
     35 C          23.8618  -25.3070   13.1905 C.ar    1  UNL1       -0.0003
     36 C          22.5221  -25.5504   13.4293 C.ar    1  UNL1       -0.0042
     37 C          20.6632  -24.1419   16.1745 C.3     1  UNL1        0.1491
     38 O          20.5149  -24.9505   17.3434 O.3     1  UNL1       -0.3784
     39 H          19.6163  -24.8496   17.6946 H       1  UNL1        0.2109
     40 C          20.4218  -22.6972   16.5291 C.ar    1  UNL1        0.0058
     41 C          20.5940  -21.7131   15.5737 C.ar    1  UNL1       -0.0019
     42 C          20.3679  -20.3884   15.8975 C.ar    1  UNL1       -0.0002
     43 C          19.9797  -20.0468   17.1796 C.ar    1  UNL1       -0.0000
     44 C          19.8127  -21.0305   18.1364 C.ar    1  UNL1       -0.0002
     45 C          20.0337  -22.3556   17.8111 C.ar    1  UNL1       -0.0019
@<TRIPOS>UNITY_ATOM_ATTR
9 1
charge -1
13 1
charge -1
24 1
charge -1
@<TRIPOS>BOND
     1    27    28    1
     2    28    30    1
     3    28    29    1
     4    28    31    1
     5    29    30    1
     6    30    37    1
     7    30    25    1
     8    37    40    1
     9    37    38    1
    10    40    45   ar
    11    40    41   ar
    12    41    42   ar
    13    42    43   ar
    14    43    44   ar
    15    44    45   ar
    16    25     1    1
    17     1     6   ar
    18     1     2   ar
    19     2     3   ar
    20     3     4   ar
    21     4     5   ar
    22     5     6   ar
    23     5    10    1
    24     6     7    1
    25     7     8   ar
    26     7     9   ar
    27    10    11    2
    28    10    12    2
    29    10    13    1
    30    13    14    1
    31    14    19   ar
    32    14    15   ar
    33    15    16   ar
    34    16    17   ar
    35    17    18   ar
    36    17    22    1
    37    18    19   ar
    38    19    20    1
    39    22    23   ar
    40    22    24   ar
    41    31    36   ar
    42    31    32   ar
    43    32    33   ar
    44    33    34   ar
    45    34    35   ar
    46    35    36   ar
    47    38    39    1
    48    25    26    1
    49    20    21    1
#	Name:			ZINC04068965
#	Creating user name:	trannguyen
#	Creation time:		Wed Dec  7 14:36:20 2022


#	Modifying user name:	trannguyen
#	Modification time:	Wed Dec  7 14:36:20 2022

@<TRIPOS>MOLECULE
ZINC04068965
 42 45 0 0 0
SMALL
GASTEIGER

@<TRIPOS>ATOM
      1 C          15.6735  -25.1012   14.9655 C.ar    1  UNL1        0.0472
      2 C          16.2124  -25.5967   16.1467 C.ar    1  UNL1        0.0144
      3 C          17.5572  -25.4410   16.4115 C.ar    1  UNL1        0.0025
      4 C          18.3808  -24.7913   15.5052 C.ar    1  UNL1        0.0170
      5 C          17.8657  -24.2937   14.3290 C.ar    1  UNL1        0.0915
      6 C          16.5039  -24.4383   14.0478 C.ar    1  UNL1        0.0428
      7 C          15.9450  -23.9037   12.7943 C.2     1  UNL1        0.0752
      8 O          15.3035  -22.8716   12.8066 O.co2   1  UNL1       -0.5445
      9 O          16.1450  -24.5590   11.6338 O.co2   1  UNL1       -0.5445
     10 S          18.9202  -23.4693   13.1832 S.O2    1  UNL1       -0.0576
     11 O          18.3577  -22.1824   12.9668 O.2     1  UNL1       -0.1842
     12 O          19.1609  -24.3836   12.1223 O.2     1  UNL1       -0.1842
     13 N          20.3734  -23.2294   13.9401 N.pl3   1  UNL1       -0.5335
     14 C          20.6931  -21.9744   14.4519 C.ar    1  UNL1       -0.0777
     15 C          20.4877  -21.7015   15.7999 C.ar    1  UNL1       -0.0209
     16 C          20.8032  -20.4624   16.3103 C.ar    1  UNL1       -0.0005
     17 C          21.3314  -19.4750   15.4731 C.ar    1  UNL1        0.0169
     18 C          21.5380  -19.7486   14.1171 C.ar    1  UNL1        0.0359
     19 C          21.2249  -20.9941   13.6117 C.ar    1  UNL1        0.1117
     20 O          21.4299  -21.2650   12.2947 O.3     1  UNL1       -0.5073
     21 H          21.2173  -22.1107   11.9518 H       1  UNL1        0.2921
     22 C          21.6696  -18.1482   16.0184 C.2     1  UNL1        0.0730
     23 O          20.8214  -17.2798   16.0735 O.co2   1  UNL1       -0.5446
     24 O          22.9194  -17.8982   16.4561 O.co2   1  UNL1       -0.5446
     25 N          14.3204  -25.2570   14.6964 N.pl3   1  UNL1       -0.3263
     26 H          13.9054  -24.7590   13.9555 H       1  UNL1        0.1472
     27 C          13.5102  -26.1624   15.5151 C.3     1  UNL1        0.1577
     28 C          12.2505  -26.5216   14.7700 C.2     1  UNL1        0.1990
     29 O          11.4715  -25.6516   14.4405 O.2     1  UNL1       -0.2893
     30 C          12.7318  -31.9178   11.8617 C.ar    1  UNL1        0.1389
     31 C          11.7468  -32.5719   12.5982 C.ar    1  UNL1        0.0400
     32 C          11.0682  -31.9144   13.6008 C.ar    1  UNL1        0.0407
     33 C          11.3601  -30.5855   13.8890 C.ar    1  UNL1        0.1489
     34 C          12.3535  -29.9194   13.1482 C.ar    1  UNL1        0.0380
     35 C          13.0387  -30.6004   12.1296 C.ar    1  UNL1        0.0399
     36 C          12.6583  -28.5643   13.4262 C.ar    1  UNL1        0.0125
     37 C          11.9667  -27.9206   14.4436 C.ar    1  UNL1        0.1124
     38 C          10.9403  -28.6683   15.1826 C.ar    1  UNL1        0.3486
     39 O          10.3178  -28.1246   16.0753 O.2     1  UNL1       -0.2444
     40 O          10.6878  -29.9508   14.8741 O.2     1  UNL1       -0.4210
     41 C          14.6735  -33.1229   11.2044 C.3     1  UNL1        0.2525
     42 O          13.3929  -32.5805   10.8757 O.3     1  UNL1       -0.4714
@<TRIPOS>UNITY_ATOM_ATTR
9 1
charge -1
13 1
charge -1
24 1
charge -1
@<TRIPOS>BOND
     1    41    42    1
     2    42    30    1
     3    30    35   ar
     4    30    31   ar
     5    31    32   ar
     6    32    33   ar
     7    33    40   ar
     8    33    34   ar
     9    34    35   ar
    10    34    36   ar
    11    36    37   ar
    12    37    38   ar
    13    37    28    1
    14    38    39    2
    15    38    40   ar
    16    28    29    2
    17    28    27    1
    18    27    25    1
    19    25     1    1
    20     1     6   ar
    21     1     2   ar
    22     2     3   ar
    23     3     4   ar
    24     4     5   ar
    25     5     6   ar
    26     5    10    1
    27     6     7    1
    28     7     8   ar
    29     7     9   ar
    30    10    11    2
    31    10    12    2
    32    10    13    1
    33    13    14    1
    34    14    19   ar
    35    14    15   ar
    36    15    16   ar
    37    16    17   ar
    38    17    18   ar
    39    17    22    1
    40    18    19   ar
    41    19    20    1
    42    22    23   ar
    43    22    24   ar
    44    25    26    1
    45    20    21    1
#	Name:			ZINC04089857
#	Creating user name:	trannguyen
#	Creation time:		Wed Dec  7 14:36:19 2022


#	Modifying user name:	trannguyen
#	Modification time:	Wed Dec  7 14:36:19 2022

@<TRIPOS>MOLECULE
ZINC04089857
 38 41 0 0 0
SMALL
GASTEIGER

@<TRIPOS>ATOM
      1 C          10.9278  -29.6934   14.0728 C.ar    1  UNL1       -0.1204
      2 C          11.8603  -29.6764   13.0438 C.ar    1  UNL1       -0.0231
      3 C          12.7815  -28.6504   12.9609 C.ar    1  UNL1        0.0159
      4 C          12.7839  -27.6403   13.9120 C.ar    1  UNL1        0.0849
      5 C          11.8526  -27.6581   14.9483 C.ar    1  UNL1        0.1502
      6 C          10.9266  -28.6845   15.0266 C.ar    1  UNL1        0.0136
      7 N          13.7222  -26.6020   13.8301 N.am    1  UNL1       -0.2755
      8 C          14.9298  -26.7374   14.4133 C.2     1  UNL1        0.2843
      9 O          15.1787  -27.7286   15.0738 O.2     1  UNL1       -0.2665
     10 H          13.4991  -25.7739   13.3466 H       1  UNL1        0.1554
     11 C          15.9457  -25.6881   14.2514 C.ar    1  UNL1        0.1986
     12 C          15.9232  -24.7184   13.3007 C.ar    1  UNL1        0.0452
     13 C          17.1202  -23.9077   13.5206 C.ar    1  UNL1        0.0377
     14 C          17.6637  -22.7833   12.8941 C.ar    1  UNL1        0.0031
     15 C          18.8327  -22.2490   13.3570 C.ar    1  UNL1        0.0002
     16 C          19.4830  -22.8156   14.4451 C.ar    1  UNL1        0.0031
     17 C          18.9636  -23.9245   15.0769 C.ar    1  UNL1        0.0375
     18 C          17.7754  -24.4862   14.6236 C.ar    1  UNL1        0.1455
     19 O          17.0387  -25.5389   15.0286 O.2     1  UNL1       -0.4489
     20 O          11.8531  -26.6688   15.8811 O.3     1  UNL1       -0.4702
     21 C          12.0304  -27.0619   17.2435 C.3     1  UNL1        0.2525
     22 N           9.9918  -30.7320   14.1518 N.am    1  UNL1       -0.6270
     23 C          10.3933  -31.9780   14.4724 C.2     1  UNL1       -0.0344
     24 S          10.7786  -32.3621   16.0957 S.2     1  UNL1       -0.0617
     25 C           9.4711  -33.7766   13.3046 C.2     1  UNL1        0.2486
     26 O           8.4626  -33.6966   13.9777 O.2     1  UNL1       -0.2698
     27 N          10.4914  -32.9216   13.5152 N.am    1  UNL1       -0.2955
     28 H          11.3084  -32.9864   12.9697 H       1  UNL1        0.1538
     29 C          10.9259  -36.1833   10.8102 C.ar    1  UNL1        0.1387
     30 C           9.7736  -36.7527   10.2847 C.ar    1  UNL1        0.0369
     31 C           8.5305  -36.3593   10.7441 C.ar    1  UNL1        0.0033
     32 C           8.4261  -35.3937   11.7244 C.ar    1  UNL1        0.0047
     33 C           9.5787  -34.8114   12.2549 C.ar    1  UNL1        0.0566
     34 C          10.8328  -35.2096   11.7900 C.ar    1  UNL1        0.0414
     35 O          12.1455  -36.5783   10.3589 O.3     1  UNL1       -0.4755
     36 C          12.7410  -35.7911    9.3255 C.3     1  UNL1        0.2054
     37 C          13.0755  -35.5977    6.8572 C.3     1  UNL1        0.0040
     38 C          12.5882  -36.5107    7.9841 C.3     1  UNL1        0.0473
@<TRIPOS>UNITY_ATOM_ATTR
22 1
charge -1
@<TRIPOS>BOND
     1    37    38    1
     2    38    36    1
     3    36    35    1
     4    35    29    1
     5    29    34   ar
     6    29    30   ar
     7    30    31   ar
     8    31    32   ar
     9    32    33   ar
    10    33    34   ar
    11    33    25    1
    12    25    26    2
    13    25    27   am
    14    27    23    1
    15    23    24    2
    16    23    22    1
    17    22     1    1
    18     1     6   ar
    19     1     2   ar
    20     2     3   ar
    21     3     4   ar
    22     4     5   ar
    23     4     7    1
    24     5     6   ar
    25     5    20    1
    26    20    21    1
    27     7     8   am
    28     8     9    2
    29     8    11    1
    30    11    19   ar
    31    11    12   ar
    32    12    13   ar
    33    13    18   ar
    34    13    14   ar
    35    14    15   ar
    36    15    16   ar
    37    16    17   ar
    38    17    18   ar
    39    18    19   ar
    40    27    28    1
    41     7    10    1
#	Name:			ZINC04118420
#	Creating user name:	trannguyen
#	Creation time:		Wed Dec  7 14:36:19 2022


#	Modifying user name:	trannguyen
#	Modification time:	Wed Dec  7 14:36:19 2022

@<TRIPOS>MOLECULE
ZINC04118420
 45 48 0 0 0
SMALL
GASTEIGER

@<TRIPOS>ATOM
      1 C          20.3881  -26.5054   17.4135 C.ar    1  UNL1        0.1940
      2 N          19.6033  -25.7789   16.6228 N.ar    1  UNL1       -0.1961
      3 C          19.1314  -26.3000   15.4939 C.ar    1  UNL1        0.1940
      4 N          19.4358  -27.5512   15.1607 N.ar    1  UNL1       -0.1961
      5 C          20.2165  -28.2793   15.9539 C.ar    1  UNL1        0.1940
      6 N          20.6925  -27.7565   17.0804 N.ar    1  UNL1       -0.1961
      7 S          21.0187  -25.8127   18.9059 S.3     1  UNL1       -0.0657
      8 C          19.8709  -24.4296   19.1201 C.3     1  UNL1        0.1501
      9 N          19.6381  -22.5805   17.4937 N.am    1  UNL1       -0.2832
     10 C          20.4047  -23.2179   18.4007 C.2     1  UNL1        0.2376
     11 O          21.5243  -22.8160   18.6378 O.2     1  UNL1       -0.2738
     12 H          18.7041  -22.8597   17.3555 H       1  UNL1        0.1549
     13 C          21.7917  -18.2889   14.4724 C.3     1  UNL1        0.0310
     14 C          21.2194  -19.4289   15.2748 C.ar    1  UNL1       -0.0218
     15 C          21.3116  -20.7233   14.7974 C.ar    1  UNL1       -0.0030
     16 C          20.7885  -21.7704   15.5306 C.ar    1  UNL1        0.0143
     17 C          20.1695  -21.5220   16.7486 C.ar    1  UNL1        0.0503
     18 C          20.0785  -20.2209   17.2254 C.ar    1  UNL1        0.0143
     19 C          20.6035  -19.1783   16.4873 C.ar    1  UNL1       -0.0030
     20 S          20.6198  -29.9367   15.5125 S.3     1  UNL1       -0.0657
     21 C          20.1936  -29.9062   13.7537 C.3     1  UNL1        0.1501
     22 C          21.4103  -29.5288   12.9485 C.2     1  UNL1        0.2376
     23 O          22.4042  -30.2225   12.9900 O.2     1  UNL1       -0.2738
     24 N          21.3938  -28.4201   12.1823 N.am    1  UNL1       -0.2832
     25 H          20.6162  -27.8168   12.2062 H       1  UNL1        0.1549
     26 C          22.4819  -28.1267   11.3528 C.ar    1  UNL1        0.0503
     27 C          23.3814  -27.1313   11.7111 C.ar    1  UNL1        0.0143
     28 C          24.4576  -26.8481   10.8929 C.ar    1  UNL1       -0.0030
     29 C          24.6332  -27.5464    9.7125 C.ar    1  UNL1       -0.0218
     30 C          23.7364  -28.5347    9.3503 C.ar    1  UNL1       -0.0030
     31 C          22.6613  -28.8266   10.1668 C.ar    1  UNL1        0.0143
     32 C          25.8048  -27.2301    8.8190 C.3     1  UNL1        0.0310
     33 S          18.0970  -25.3353   14.4429 S.3     1  UNL1       -0.0657
     34 C          16.7560  -24.9450   15.5943 C.3     1  UNL1        0.1501
     35 C          15.4378  -25.3480   14.9853 C.2     1  UNL1        0.2376
     36 O          14.9561  -24.6869   14.0898 O.2     1  UNL1       -0.2738
     37 N          14.7942  -26.4431   15.4358 N.am    1  UNL1       -0.2832
     38 H          15.1446  -26.9351   16.2133 H       1  UNL1        0.1549
     39 C          13.6278  -26.8807   14.7986 C.ar    1  UNL1        0.0503
     40 C          13.7117  -27.6814   13.6671 C.ar    1  UNL1        0.0143
     41 C          12.5585  -28.1165   13.0438 C.ar    1  UNL1       -0.0030
     42 C          11.3215  -27.7459   13.5385 C.ar    1  UNL1       -0.0218
     43 C          11.2346  -26.9444   14.6619 C.ar    1  UNL1       -0.0030
     44 C          12.3840  -26.5106   15.2932 C.ar    1  UNL1        0.0143
     45 C          10.0654  -28.2169   12.8520 C.3     1  UNL1        0.0310
@<TRIPOS>BOND
     1    13    14    1
     2    14    19   ar
     3    14    15   ar
     4    15    16   ar
     5    16    17   ar
     6    17    18   ar
     7    17     9    1
     8    18    19   ar
     9     9    10   am
    10    10    11    2
    11    10     8    1
    12     8     7    1
    13     7     1    1
    14     1     6   ar
    15     1     2   ar
    16     2     3   ar
    17     3     4   ar
    18     3    33    1
    19     4     5   ar
    20     5     6   ar
    21     5    20    1
    22    20    21    1
    23    21    22    1
    24    22    23    2
    25    22    24   am
    26    24    26    1
    27    26    31   ar
    28    26    27   ar
    29    27    28   ar
    30    28    29   ar
    31    29    30   ar
    32    29    32    1
    33    30    31   ar
    34    33    34    1
    35    34    35    1
    36    35    36    2
    37    35    37   am
    38    37    39    1
    39    39    44   ar
    40    39    40   ar
    41    40    41   ar
    42    41    42   ar
    43    42    43   ar
    44    42    45    1
    45    43    44   ar
    46     9    12    1
    47    24    25    1
    48    37    38    1
#	Name:			ZINC04147416
#	Creating user name:	trannguyen
#	Creation time:		Wed Dec  7 14:36:20 2022


#	Modifying user name:	trannguyen
#	Modification time:	Wed Dec  7 14:36:20 2022

@<TRIPOS>MOLECULE
ZINC04147416
 42 46 0 0 0
SMALL
GASTEIGER

@<TRIPOS>ATOM
      1 C          10.9696  -28.5391   15.0365 C.3     1  UNL1        0.1303
      2 C          10.8110  -27.6127   13.8168 C.3     1  UNL1        0.1643
      3 O          11.8769  -26.6328   13.8626 O.3     1  UNL1       -0.3481
      4 C          12.2744  -26.5150   15.2403 C.3     1  UNL1        0.1863
      5 C          12.1875  -27.9703   15.8007 C.3     1  UNL1        0.1662
      6 O          13.3728  -28.6263   15.3300 O.3     1  UNL1       -0.3479
      7 C          14.3877  -27.6632   15.0103 C.3     1  UNL1        0.1883
      8 C          13.8026  -26.2654   15.3011 C.3     1  UNL1        0.2291
      9 N           9.7703  -28.4887   15.8763 N.am    1  UNL1       -0.3131
     10 H           9.1439  -27.7335   15.7952 H       1  UNL1        0.1485
     11 C           9.5245  -29.4761   16.7601 C.2     1  UNL1        0.1352
     12 S          10.4849  -30.8933   16.7492 S.2     1  UNL1       -0.0185
     13 N           8.5225  -29.3479   17.6524 N.am    1  UNL1       -0.2959
     14 H           7.5866  -29.3614   17.3470 H       1  UNL1        0.1539
     15 C          10.2155  -28.3279   20.7643 C.ar    1  UNL1        0.0769
     16 C           9.3713  -28.9025   21.7170 C.ar    1  UNL1        0.0065
     17 C           8.2606  -29.6150   21.3142 C.ar    1  UNL1        0.0015
     18 C           7.9759  -29.7586   19.9688 C.ar    1  UNL1        0.0147
     19 C           8.8125  -29.1954   19.0127 C.ar    1  UNL1        0.0498
     20 C           9.9311  -28.4774   19.4067 C.ar    1  UNL1        0.0211
     21 C          11.4053  -27.5640   21.1926 C.2     1  UNL1        0.3414
     22 O          11.7570  -26.5852   20.5651 O.2     1  UNL1       -0.2449
     23 C          13.4424  -28.4605   22.0562 C.3     1  UNL1        0.2560
     24 O          12.1003  -27.9530   22.2791 O.3     1  UNL1       -0.4413
     25 O          14.2103  -25.3139   14.2828 O.3     1  UNL1       -0.4330
     26 C          15.4797  -24.8678   14.3361 C.2     1  UNL1        0.4054
     27 O          15.9665  -24.5464   15.4022 O.2     1  UNL1       -0.2261
     28 N          16.2103  -24.7776   13.2072 N.am    1  UNL1       -0.2499
     29 H          15.8595  -25.1436   12.3632 H       1  UNL1        0.1582
     30 C          17.4695  -24.1631   13.2347 C.ar    1  UNL1        0.0534
     31 C          18.5983  -24.9064   13.5523 C.ar    1  UNL1        0.0179
     32 C          19.8388  -24.3005   13.5787 C.ar    1  UNL1        0.0388
     33 C          19.9573  -22.9490   13.2877 C.ar    1  UNL1        0.1454
     34 C          18.8290  -22.2046   12.9755 C.ar    1  UNL1        0.0388
     35 C          17.5886  -22.8106   12.9440 C.ar    1  UNL1        0.0179
     36 O          21.1789  -22.3528   13.3140 O.3     1  UNL1       -0.4535
     37 C          21.2693  -21.1069   13.8484 C.ar    1  UNL1        0.1453
     38 C          21.4289  -20.0051   13.0200 C.ar    1  UNL1        0.0375
     39 C          21.5262  -18.7401   13.5663 C.ar    1  UNL1        0.0031
     40 C          21.4532  -18.5700   14.9366 C.ar    1  UNL1        0.0002
     41 C          21.2890  -19.6656   15.7640 C.ar    1  UNL1        0.0031
     42 C          21.1969  -20.9334   15.2232 C.ar    1  UNL1        0.0375
@<TRIPOS>BOND
     1    23    24    1
     2    24    21    1
     3    21    22    2
     4    21    15    1
     5    15    20   ar
     6    15    16   ar
     7    16    17   ar
     8    17    18   ar
     9    18    19   ar
    10    19    20   ar
    11    19    13    1
    12    13    11    1
    13    11    12    2
    14    11     9    1
    15     9     1    1
    16     1     5    1
    17     1     2    1
    18     2     3    1
    19     3     4    1
    20     4     8    1
    21     4     5    1
    22     5     6    1
    23     6     7    1
    24     7     8    1
    25     8    25    1
    26    25    26    1
    27    26    27    2
    28    26    28   am
    29    28    30    1
    30    30    35   ar
    31    30    31   ar
    32    31    32   ar
    33    32    33   ar
    34    33    34   ar
    35    33    36    1
    36    34    35   ar
    37    36    37    1
    38    37    42   ar
    39    37    38   ar
    40    38    39   ar
    41    39    40   ar
    42    40    41   ar
    43    41    42   ar
    44    13    14    1
    45     9    10    1
    46    28    29    1
#	Name:			ZINC04184009
#	Creating user name:	trannguyen
#	Creation time:		Wed Dec  7 14:36:19 2022


#	Modifying user name:	trannguyen
#	Modification time:	Wed Dec  7 14:36:19 2022

@<TRIPOS>MOLECULE
ZINC04184009
 15 15 0 0 0
SMALL
GASTEIGER

@<TRIPOS>ATOM
      1 C          21.0887  -20.7843   16.3024 C.ar    1  UNL1        0.0924
      2 N          21.6705  -21.6268   15.4320 N.ar    1  UNL1       -0.5437
      3 N          21.4722  -22.9216   15.9384 N.ar    1  UNL1       -0.3344
      4 C          20.7919  -22.7920   17.0524 C.ar    1  UNL1        0.2028
      5 N          20.5652  -21.4931   17.2697 N.ar    1  UNL1       -0.2194
      6 N          20.3771  -23.8406   17.8799 N.am    1  UNL1       -0.2551
      7 C          21.2210  -24.3462   18.8012 C.2     1  UNL1        0.2287
      8 O          22.3401  -23.8919   18.9126 O.2     1  UNL1       -0.2747
      9 C          20.7742  -25.4759   19.6928 C.3     1  UNL1        0.0950
     10 H          19.4687  -24.2093   17.7894 H       1  UNL1        0.1577
     11 S          21.0394  -19.0283   16.1647 S.O2    1  UNL1        0.0054
     12 O          19.9490  -18.6309   16.9847 O.2     1  UNL1       -0.1689
     13 O          22.3624  -18.6039   16.4628 O.2     1  UNL1       -0.1689
     14 C          21.9383  -18.3057   13.6845 C.3     1  UNL1        0.0276
     15 C          20.6586  -18.7080   14.4203 C.3     1  UNL1        0.1556
@<TRIPOS>UNITY_ATOM_ATTR
2 1
charge -1
@<TRIPOS>BOND
     1    14    15    1
     2    15    11    1
     3    11    12    2
     4    11    13    2
     5    11     1    1
     6     1     5   ar
     7     1     2   ar
     8     2     3   ar
     9     3     4   ar
    10     4     5   ar
    11     4     6    1
    12     6     7   am
    13     7     8    2
    14     7     9    1
    15     6    10    1
#	Name:			ZINC04191127
#	Creating user name:	trannguyen
#	Creation time:		Wed Dec  7 14:36:20 2022


#	Modifying user name:	trannguyen
#	Modification time:	Wed Dec  7 14:36:20 2022

@<TRIPOS>MOLECULE
ZINC04191127
 43 46 0 0 0
SMALL
GASTEIGER

@<TRIPOS>ATOM
      1 C          16.2760  -26.5034   14.9223 C.ar    1  UNL1        0.0518
      2 C          16.4640  -27.0113   16.2041 C.ar    1  UNL1        0.0160
      3 C          15.3792  -27.3426   16.9885 C.ar    1  UNL1        0.0159
      4 C          14.0888  -27.1716   16.5029 C.ar    1  UNL1        0.0524
      5 C          13.8923  -26.6656   15.2092 C.ar    1  UNL1        0.0679
      6 C          14.9976  -26.3265   14.4244 C.ar    1  UNL1        0.0205
      7 N          19.1032  -24.6846   13.5912 N.am    1  UNL1       -0.2681
      8 C          17.9783  -24.9680   14.2773 C.2     1  UNL1        0.3082
      9 O          17.4979  -24.1392   15.0263 O.2     1  UNL1       -0.2522
     10 N          17.3857  -26.1698   14.1331 N.am    1  UNL1       -0.2681
     11 H          19.4538  -25.3278   12.9334 H       1  UNL1        0.1564
     12 H          17.7322  -26.8135   13.4737 H       1  UNL1        0.1564
     13 C          21.0988  -21.0835   14.2547 C.ar    1  UNL1        0.1386
     14 C          20.1679  -21.1819   13.2310 C.ar    1  UNL1        0.0382
     15 C          19.5066  -22.3741   13.0108 C.ar    1  UNL1        0.0178
     16 C          19.7739  -23.4744   13.8141 C.ar    1  UNL1        0.0518
     17 C          20.7018  -23.3738   14.8420 C.ar    1  UNL1        0.0178
     18 C          21.3663  -22.1826   15.0577 C.ar    1  UNL1        0.0382
     19 O          21.7496  -19.9094   14.4710 O.3     1  UNL1       -0.4755
     20 C          20.5877  -18.7489   16.2441 C.3     1  UNL1        0.0512
     21 C          20.9440  -18.7641   14.7563 C.3     1  UNL1        0.2055
     22 N          12.9954  -27.5064   17.2945 N.pl3   1  UNL1       -0.3040
     23 C          12.7633  -28.9575   17.2854 C.3     1  UNL1        0.1122
     24 C          11.5080  -29.2758   18.1011 C.3     1  UNL1        0.1123
     25 N          11.6809  -28.7816   19.4743 N.pl3   1  UNL1       -0.3017
     26 C          11.9130  -27.3306   19.4834 C.3     1  UNL1        0.1123
     27 C          13.1683  -27.0123   18.6676 C.3     1  UNL1        0.1122
     28 C          10.5805  -29.1186   20.2709 C.ar    1  UNL1        0.0824
     29 C           9.3091  -29.1637   19.7176 C.ar    1  UNL1        0.0176
     30 C           8.2232  -29.4907   20.5078 C.ar    1  UNL1        0.0015
     31 C           8.4006  -29.7737   21.8494 C.ar    1  UNL1        0.0032
     32 C           9.6649  -29.7312   22.4077 C.ar    1  UNL1        0.0382
     33 C          10.7582  -29.4039   21.6229 C.ar    1  UNL1        0.1519
     34 O          12.0023  -29.3608   22.1708 O.3     1  UNL1       -0.4702
     35 C          12.2701  -28.2995   23.0897 C.3     1  UNL1        0.2525
     36 C          12.5268  -26.4864   14.6830 C.2     1  UNL1        0.2471
     37 O          11.9263  -25.4495   14.8906 O.2     1  UNL1       -0.2701
     38 N          11.9439  -27.4719   13.9720 N.am    1  UNL1       -0.3008
     39 H          12.4299  -28.3113   13.8040 H       1  UNL1        0.1497
     40 C          10.5870  -27.2939   13.4493 C.3     1  UNL1        0.0896
     41 C           9.8249  -28.6170   13.5474 C.3     1  UNL1        0.0196
     42 C          10.7432  -29.7667   13.1278 C.3     1  UNL1        0.0017
     43 C           9.3628  -28.8337   14.9898 C.3     1  UNL1        0.0017
@<TRIPOS>BOND
     1    20    21    1
     2    21    19    1
     3    19    13    1
     4    13    18   ar
     5    13    14   ar
     6    14    15   ar
     7    15    16   ar
     8    16    17   ar
     9    16     7    1
    10    17    18   ar
    11     7     8   am
    12     8     9    2
    13     8    10   am
    14    10     1    1
    15     1     6   ar
    16     1     2   ar
    17     2     3   ar
    18     3     4   ar
    19     4     5   ar
    20     4    22    1
    21     5     6   ar
    22     5    36    1
    23    36    37    2
    24    36    38   am
    25    38    40    1
    26    40    41    1
    27    41    42    1
    28    41    43    1
    29    22    27    1
    30    22    23    1
    31    23    24    1
    32    24    25    1
    33    25    26    1
    34    25    28    1
    35    26    27    1
    36    28    33   ar
    37    28    29   ar
    38    29    30   ar
    39    30    31   ar
    40    31    32   ar
    41    32    33   ar
    42    33    34    1
    43    34    35    1
    44     7    11    1
    45    10    12    1
    46    38    39    1
#	Name:			ZINC04208877
#	Creating user name:	trannguyen
#	Creation time:		Wed Dec  7 14:36:19 2022


#	Modifying user name:	trannguyen
#	Modification time:	Wed Dec  7 14:36:19 2022

@<TRIPOS>MOLECULE
ZINC04208877
 48 52 0 0 0
SMALL
GASTEIGER

@<TRIPOS>ATOM
      1 C          19.6250  -30.6212   14.6248 C.3     1  UNL1        0.0323
      2 C          20.3370  -29.3222   14.3476 C.ar    1  UNL1       -0.0088
      3 C          20.0026  -28.0640   14.8858 C.ar    1  UNL1        0.0538
      4 C          18.9476  -27.8416   15.7552 C.2     1  UNL1        0.0354
      5 C          18.6275  -26.5913   16.2880 C.2     1  UNL1        0.0785
      6 N          19.2634  -25.4358   16.0906 N.2     1  UNL1       -0.2459
      7 C          18.6723  -24.4604   16.7825 C.2     1  UNL1        0.0785
      8 C          19.0475  -23.1174   16.8500 C.2     1  UNL1        0.0354
      9 C          20.1205  -22.5822   16.1551 C.ar    1  UNL1        0.0538
     10 C          20.5147  -21.2320   16.2184 C.ar    1  UNL1       -0.0087
     11 C          21.5916  -21.0694   15.4047 C.ar    1  UNL1       -0.0066
     12 C          21.8873  -22.3152   14.8186 C.ar    1  UNL1        0.0539
     13 N          20.9802  -23.2333   15.2987 N.ar    1  UNL1       -0.3535
     14 C          22.9212  -22.5309   13.9217 C.2     1  UNL1        0.0354
     15 C          23.2114  -23.7714   13.3515 C.2     1  UNL1        0.0785
     16 N          22.5956  -24.9336   13.5745 N.2     1  UNL1       -0.2459
     17 C          23.1665  -25.9025   12.8576 C.2     1  UNL1        0.0785
     18 C          22.8213  -27.2554   12.8285 C.2     1  UNL1        0.0354
     19 C          21.7706  -27.7971   13.5508 C.ar    1  UNL1        0.0538
     20 C          21.4136  -29.1596   13.5345 C.ar    1  UNL1       -0.0088
     21 N          20.8983  -27.1422   14.3914 N.ar    1  UNL1       -0.3535
     22 C          24.2616  -25.3141   12.0739 C.2     1  UNL1       -0.0066
     23 C          24.2895  -23.9987   12.3785 C.2     1  UNL1       -0.0067
     24 C          25.2392  -22.9662   11.8281 C.3     1  UNL1        0.0323
     25 C          19.8578  -20.1556   17.0435 C.3     1  UNL1        0.0323
     26 C          17.5209  -25.0313   17.4953 C.2     1  UNL1       -0.0045
     27 C          17.4933  -26.3468   17.1905 C.2     1  UNL1       -0.0066
     28 C          16.4953  -27.3643   17.6797 C.3     1  UNL1        0.0323
     29 H          20.9512  -24.1902   15.0692 H       1  UNL1        0.1659
     30 H          20.9126  -26.1807   14.6025 H       1  UNL1        0.1659
     31 C          22.1041  -30.2465   12.7516 C.3     1  UNL1        0.0334
     32 C          21.6782  -30.1673   11.2843 C.3     1  UNL1        0.0464
     33 C          22.8944  -29.9612   10.4186 C.2     1  UNL1        0.0507
     34 O          22.7701  -29.8256    9.2245 O.co2   1  UNL1       -0.5492
     35 O          24.1160  -29.9285   10.9742 O.co2   1  UNL1       -0.5492
     36 C          25.1712  -26.0360   11.1134 C.3     1  UNL1        0.0335
     37 C          24.4247  -26.2990    9.8039 C.3     1  UNL1        0.0464
     38 C          25.3706  -26.9053    8.7996 C.2     1  UNL1        0.0507
     39 O          26.5265  -27.0950    9.0961 O.co2   1  UNL1       -0.5492
     40 O          24.9291  -27.2347    7.5756 O.co2   1  UNL1       -0.5492
     41 C          22.3384  -19.7814   15.1713 C.3     1  UNL1        0.0593
     42 C          21.6174  -18.9608   14.1001 C.3     1  UNL1        0.1419
     43 O          22.1079  -17.6187   14.1179 O.3     1  UNL1       -0.3816
     44 H          21.9451  -17.2264   14.9899 H       1  UNL1        0.2105
     45 C          16.5597  -24.2937   18.3914 C.3     1  UNL1        0.0593
     46 C          17.0783  -24.3245   19.8305 C.3     1  UNL1        0.1419
     47 O          16.1944  -25.1039   20.6388 O.3     1  UNL1       -0.3816
     48 H          15.3087  -24.7088   20.6227 H       1  UNL1        0.2105
@<TRIPOS>UNITY_ATOM_ATTR
35 1
charge -1
40 1
charge -1
@<TRIPOS>BOND
     1     1     2    1
     2     2    20   ar
     3     2     3   ar
     4     3    21   ar
     5     3     4    2
     6     4     5    1
     7     5    27    1
     8     5     6    2
     9     6     7    1
    10     7     8    2
    11     7    26    1
    12     8     9    1
    13     9    13   ar
    14     9    10   ar
    15    10    11   ar
    16    10    25    1
    17    11    12   ar
    18    11    41    1
    19    12    13   ar
    20    12    14    1
    21    14    15    2
    22    15    23    1
    23    15    16    1
    24    16    17    2
    25    17    18    1
    26    17    22    1
    27    18    19    2
    28    19    20   ar
    29    19    21   ar
    30    20    31    1
    31    31    32    1
    32    32    33    1
    33    33    34   ar
    34    33    35   ar
    35    22    23    2
    36    22    36    1
    37    23    24    1
    38    36    37    1
    39    37    38    1
    40    38    39   ar
    41    38    40   ar
    42    41    42    1
    43    42    43    1
    44    26    27    2
    45    26    45    1
    46    27    28    1
    47    45    46    1
    48    46    47    1
    49    13    29    1
    50    21    30    1
    51    43    44    1
    52    47    48    1
#	Name:			ZINC04208883
#	Creating user name:	trannguyen
#	Creation time:		Wed Dec  7 14:36:19 2022


#	Modifying user name:	trannguyen
#	Modification time:	Wed Dec  7 14:36:19 2022

@<TRIPOS>MOLECULE
ZINC04208883
 50 54 0 0 0
SMALL
GASTEIGER

@<TRIPOS>ATOM
      1 C          16.7182  -23.6418   18.8037 C.3     1  UNL1        0.0323
      2 C          17.6221  -24.4249   17.8867 C.ar    1  UNL1       -0.0088
      3 C          18.6888  -23.9008   17.1309 C.ar    1  UNL1        0.0538
      4 C          19.0670  -22.5679   17.1306 C.2     1  UNL1        0.0354
      5 C          20.1258  -22.0631   16.3725 C.2     1  UNL1        0.0785
      6 N          20.9148  -22.7337   15.5318 N.2     1  UNL1       -0.2458
      7 C          21.8076  -21.9094   14.9813 C.2     1  UNL1        0.0807
      8 C          22.7925  -22.2244   14.0437 C.2     1  UNL1        0.0355
      9 C          23.0105  -23.4995   13.5474 C.ar    1  UNL1        0.0539
     10 C          23.9982  -23.8237   12.5974 C.ar    1  UNL1       -0.0066
     11 C          23.9257  -25.1592   12.3539 C.ar    1  UNL1        0.0173
     12 C          22.8913  -25.6914   13.1469 C.ar    1  UNL1        0.0560
     13 N          22.3360  -24.6568   13.8664 N.ar    1  UNL1       -0.3535
     14 C          22.5308  -27.0295   13.1682 C.2     1  UNL1        0.0355
     15 C          21.4986  -27.5410   13.9570 C.2     1  UNL1        0.0785
     16 N          20.6939  -26.8662   14.7798 N.2     1  UNL1       -0.2459
     17 C          19.8198  -27.6951   15.3518 C.2     1  UNL1        0.0785
     18 C          18.8087  -27.3731   16.2592 C.2     1  UNL1        0.0354
     19 C          18.5718  -26.0934   16.7327 C.ar    1  UNL1        0.0538
     20 C          17.5507  -25.7600   17.6444 C.ar    1  UNL1       -0.0086
     21 N          19.2556  -24.9384   16.4248 N.ar    1  UNL1       -0.3535
     22 C          20.0856  -29.0560   14.8640 C.2     1  UNL1       -0.0064
     23 C          21.1221  -28.9609   14.0034 C.2     1  UNL1       -0.0067
     24 C          21.7661  -30.0893   13.2401 C.3     1  UNL1        0.0323
     25 C          24.9659  -22.8590   11.9618 C.3     1  UNL1        0.0323
     26 C          21.5911  -20.5620   15.5274 C.2     1  UNL1        0.0194
     27 C          20.5575  -20.6585   16.3912 C.2     1  UNL1       -0.0044
     28 C          19.9611  -19.5435   17.2110 C.3     1  UNL1        0.0324
     29 H          21.5860  -24.7317   14.4997 H       1  UNL1        0.1659
     30 H          20.0183  -24.8667   15.8063 H       1  UNL1        0.1659
     31 C          24.7995  -25.9343   11.4015 C.3     1  UNL1        0.1339
     32 C          25.6509  -26.9328   12.1882 C.3     1  UNL1        0.0367
     33 O          23.9784  -26.6396   10.4686 O.3     1  UNL1       -0.3800
     34 H          23.3985  -27.2526   10.9471 H       1  UNL1        0.2108
     35 C          22.3735  -19.3180   15.1937 C.3     1  UNL1        0.1340
     36 C          21.6225  -18.5130   14.1310 C.3     1  UNL1        0.0367
     37 O          22.5297  -18.5234   16.3710 O.3     1  UNL1       -0.3800
     38 H          21.6562  -18.2744   16.7113 H       1  UNL1        0.2108
     39 C          16.5538  -26.7170   18.2458 C.3     1  UNL1        0.0392
     40 C          17.0654  -27.1987   19.6049 C.3     1  UNL1        0.1143
     41 C          16.1925  -26.6377   20.6978 C.2     1  UNL1        0.3174
     42 O          16.6857  -26.2794   21.7409 O.2     1  UNL1       -0.2501
     43 O          14.8670  -26.5359   20.5123 O.3     1  UNL1       -0.4444
     44 C          14.0122  -27.1559   21.5090 C.3     1  UNL1        0.2556
     45 C          19.3467  -30.3116   15.2492 C.3     1  UNL1        0.0393
     46 C          20.2599  -31.2019   16.0944 C.3     1  UNL1        0.1143
     47 C          20.5737  -30.5085   17.3952 C.2     1  UNL1        0.3174
     48 O          21.7203  -30.2665   17.6895 O.2     1  UNL1       -0.2501
     49 O          19.5794  -30.1599   18.2268 O.3     1  UNL1       -0.4444
     50 C          19.9598  -29.5832   19.5039 C.3     1  UNL1        0.2556
@<TRIPOS>BOND
     1     1     2    1
     2     2    20   ar
     3     2     3   ar
     4     3    21   ar
     5     3     4    2
     6     4     5    1
     7     5    27    1
     8     5     6    2
     9     6     7    1
    10     7     8    2
    11     7    26    1
    12     8     9    1
    13     9    13   ar
    14     9    10   ar
    15    10    11   ar
    16    10    25    1
    17    11    12   ar
    18    11    31    1
    19    12    13   ar
    20    12    14    1
    21    14    15    2
    22    15    23    1
    23    15    16    1
    24    16    17    2
    25    17    18    1
    26    17    22    1
    27    18    19    2
    28    19    20   ar
    29    19    21   ar
    30    20    39    1
    31    39    40    1
    32    40    41    1
    33    41    42    2
    34    41    43    1
    35    43    44    1
    36    22    23    2
    37    22    45    1
    38    23    24    1
    39    45    46    1
    40    46    47    1
    41    47    48    2
    42    47    49    1
    43    49    50    1
    44    31    32    1
    45    31    33    1
    46    26    27    2
    47    26    35    1
    48    27    28    1
    49    35    36    1
    50    35    37    1
    51    13    29    1
    52    21    30    1
    53    33    34    1
    54    37    38    1
#	Name:			ZINC04211827
#	Creating user name:	trannguyen
#	Creation time:		Wed Dec  7 14:36:20 2022


#	Modifying user name:	trannguyen
#	Modification time:	Wed Dec  7 14:36:20 2022

@<TRIPOS>MOLECULE
ZINC04211827
 48 52 0 0 0
SMALL
GASTEIGER

@<TRIPOS>ATOM
      1 C          18.7615  -25.3711   14.5825 C.ar    1  UNL1        0.0679
      2 C          17.7347  -25.3802   15.5300 C.ar    1  UNL1        0.0205
      3 C          17.4409  -26.5451   16.2159 C.ar    1  UNL1        0.0518
      4 C          18.1681  -27.7054   15.9686 C.ar    1  UNL1        0.0160
      5 C          19.1799  -27.7075   15.0314 C.ar    1  UNL1        0.0159
      6 C          19.4873  -26.5458   14.3342 C.ar    1  UNL1        0.0524
      7 N          20.5117  -26.5473   13.3934 N.pl3   1  UNL1       -0.3040
      8 C          20.5536  -27.8215   12.6624 C.3     1  UNL1        0.1122
      9 C          21.6392  -27.7535   11.5858 C.3     1  UNL1        0.1123
     10 N          22.9351  -27.4692   12.2178 N.pl3   1  UNL1       -0.3017
     11 C          22.8932  -26.1951   12.9487 C.3     1  UNL1        0.1123
     12 C          21.8076  -26.2630   14.0254 C.3     1  UNL1        0.1122
     13 C          23.9660  -27.4708   11.2710 C.ar    1  UNL1        0.0824
     14 C          24.4644  -26.2714   10.7836 C.ar    1  UNL1        0.0176
     15 C          25.4859  -26.2755    9.8522 C.ar    1  UNL1        0.0015
     16 C          26.0059  -27.4729    9.3969 C.ar    1  UNL1        0.0032
     17 C          25.5103  -28.6724    9.8744 C.ar    1  UNL1        0.0382
     18 C          24.4902  -28.6769   10.8113 C.ar    1  UNL1        0.1519
     19 O          24.0013  -29.8559   11.2811 O.3     1  UNL1       -0.4702
     20 C          23.7105  -30.8685   10.3155 C.3     1  UNL1        0.2525
     21 N          16.4111  -26.5552   17.1671 N.am    1  UNL1       -0.2681
     22 C          15.2845  -27.2572   16.9334 C.2     1  UNL1        0.3082
     23 O          15.1932  -27.9454   15.9350 O.2     1  UNL1       -0.2521
     24 N          14.2594  -27.1965   17.8061 N.am    1  UNL1       -0.2656
     25 H          16.5109  -26.0494   18.0060 H       1  UNL1        0.1564
     26 H          14.3072  -26.5903   18.5803 H       1  UNL1        0.1565
     27 C          13.1234  -27.9976   17.6113 C.ar    1  UNL1        0.0861
     28 C          13.0425  -29.2450   18.2118 C.ar    1  UNL1        0.0209
     29 C          11.9266  -30.0362   18.0154 C.ar    1  UNL1        0.0384
     30 C          10.8807  -29.5804   17.2262 C.ar    1  UNL1        0.1418
     31 C          10.9572  -28.3337   16.6237 C.ar    1  UNL1        0.0750
     32 C          12.0766  -27.5407   16.8144 C.ar    1  UNL1        0.1551
     33 O          12.1533  -26.3178   16.2247 O.3     1  UNL1       -0.4701
     34 C          12.0543  -26.2774   14.7997 C.3     1  UNL1        0.2525
     35 O           9.7819  -30.3590   17.0391 O.3     1  UNL1       -0.4713
     36 C           9.1761  -30.9177   18.2066 C.3     1  UNL1        0.2525
     37 N          19.9998  -23.2775   14.3351 N.am    1  UNL1       -0.2987
     38 C          19.0803  -24.1336   13.8471 C.2     1  UNL1        0.2473
     39 O          18.5137  -23.8853   12.8002 O.2     1  UNL1       -0.2701
     40 H          20.4586  -23.4785   15.1827 H       1  UNL1        0.1500
     41 C          21.6206  -22.2382   12.8271 C.3     1  UNL1        0.0262
     42 C          20.3166  -22.0479   13.6045 C.3     1  UNL1        0.0944
     43 C          20.4747  -20.9104   14.5802 C.ar    1  UNL1       -0.0045
     44 C          20.8526  -19.6598   14.1284 C.ar    1  UNL1       -0.0027
     45 C          20.9934  -18.6153   15.0230 C.ar    1  UNL1       -0.0003
     46 C          20.7652  -18.8236   16.3703 C.ar    1  UNL1       -0.0000
     47 C          20.3923  -20.0755   16.8227 C.ar    1  UNL1       -0.0003
     48 C          20.2473  -21.1189   15.9277 C.ar    1  UNL1       -0.0027
@<TRIPOS>BOND
     1    41    42    1
     2    42    43    1
     3    42    37    1
     4    43    48   ar
     5    43    44   ar
     6    44    45   ar
     7    45    46   ar
     8    46    47   ar
     9    47    48   ar
    10    37    38   am
    11    38    39    2
    12    38     1    1
    13     1     6   ar
    14     1     2   ar
    15     2     3   ar
    16     3     4   ar
    17     3    21    1
    18     4     5   ar
    19     5     6   ar
    20     6     7    1
    21     7    12    1
    22     7     8    1
    23     8     9    1
    24     9    10    1
    25    10    11    1
    26    10    13    1
    27    11    12    1
    28    13    18   ar
    29    13    14   ar
    30    14    15   ar
    31    15    16   ar
    32    16    17   ar
    33    17    18   ar
    34    18    19    1
    35    19    20    1
    36    21    22   am
    37    22    23    2
    38    22    24   am
    39    24    27    1
    40    27    32   ar
    41    27    28   ar
    42    28    29   ar
    43    29    30   ar
    44    30    31   ar
    45    30    35    1
    46    31    32   ar
    47    32    33    1
    48    33    34    1
    49    35    36    1
    50    37    40    1
    51    21    25    1
    52    24    26    1
#	Name:			ZINC04213341
#	Creating user name:	trannguyen
#	Creation time:		Wed Dec  7 14:36:19 2022


#	Modifying user name:	trannguyen
#	Modification time:	Wed Dec  7 14:36:19 2022

@<TRIPOS>MOLECULE
ZINC04213341
 34 36 0 0 0
SMALL
GASTEIGER

@<TRIPOS>ATOM
      1 C          17.2133  -24.4908   13.9940 C.ar    1  UNL1        0.0508
      2 C          17.3734  -23.3575   13.2021 C.ar    1  UNL1        0.0159
      3 C          18.4657  -22.5342   13.3765 C.ar    1  UNL1        0.0159
      4 C          19.4128  -22.8282   14.3497 C.ar    1  UNL1        0.0523
      5 C          19.2601  -23.9717   15.1481 C.ar    1  UNL1        0.0679
      6 C          18.1501  -24.8001   14.9640 C.ar    1  UNL1        0.0204
      7 N          20.5111  -21.9941   14.5287 N.pl3   1  UNL1       -0.3074
      8 C          20.8123  -21.2367   13.2870 C.3     1  UNL1        0.0908
      9 C          21.6533  -20.0396   13.7971 C.3     1  UNL1        0.0232
     10 C          20.9790  -19.6925   15.1443 C.3     1  UNL1        0.0232
     11 C          20.2396  -20.9757   15.5663 C.3     1  UNL1        0.0908
     12 C          15.0149  -25.1782   14.5951 C.2     1  UNL1        0.2495
     13 O          14.9684  -24.2766   15.4093 O.2     1  UNL1       -0.2698
     14 N          16.1000  -25.3207   13.8086 N.am    1  UNL1       -0.2804
     15 H          16.1102  -26.0080   13.1038 H       1  UNL1        0.1552
     16 C          11.7574  -27.8793   14.2295 C.ar    1  UNL1       -0.0228
     17 C          11.7126  -26.8703   15.1752 C.ar    1  UNL1       -0.0041
     18 C          12.7672  -25.9896   15.2991 C.ar    1  UNL1        0.0042
     19 C          13.8813  -26.1183   14.4680 C.ar    1  UNL1        0.0537
     20 C          13.9177  -27.1352   13.5123 C.ar    1  UNL1        0.0042
     21 C          12.8587  -28.0124   13.4025 C.ar    1  UNL1       -0.0041
     22 C           9.8520  -28.9156   15.4312 C.3     1  UNL1        0.0044
     23 C          10.6017  -28.8377   14.0998 C.3     1  UNL1        0.0189
     24 C           9.6507  -28.3451   13.0071 C.3     1  UNL1        0.0044
     25 C          11.1290  -30.2254   13.7294 C.3     1  UNL1        0.0044
     26 C          20.2625  -24.2942   16.1802 C.2     1  UNL1        0.2471
     27 O          21.3002  -24.8462   15.8685 O.2     1  UNL1       -0.2701
     28 N          20.0285  -23.9773   17.4690 N.am    1  UNL1       -0.3007
     29 H          19.1884  -23.5304   17.7214 H       1  UNL1        0.1497
     30 C          21.0245  -24.2977   18.4946 C.3     1  UNL1        0.0923
     31 C          20.4716  -25.3825   19.4211 C.3     1  UNL1        0.0533
     32 C          18.9445  -25.4013   19.3301 C.3     1  UNL1        0.1440
     33 O          18.4202  -24.1862   19.8695 O.3     1  UNL1       -0.3510
     34 C          17.0526  -24.2724   20.2745 C.3     1  UNL1        0.1741
@<TRIPOS>BOND
     1    22    23    1
     2    23    24    1
     3    23    25    1
     4    23    16    1
     5    16    21   ar
     6    16    17   ar
     7    17    18   ar
     8    18    19   ar
     9    19    20   ar
    10    19    12    1
    11    20    21   ar
    12    12    13    2
    13    12    14   am
    14    14     1    1
    15     1     6   ar
    16     1     2   ar
    17     2     3   ar
    18     3     4   ar
    19     4     5   ar
    20     4     7    1
    21     5     6   ar
    22     5    26    1
    23    26    27    2
    24    26    28   am
    25    28    30    1
    26    30    31    1
    27    31    32    1
    28    32    33    1
    29    33    34    1
    30     7    11    1
    31     7     8    1
    32     8     9    1
    33     9    10    1
    34    10    11    1
    35    14    15    1
    36    28    29    1
#	Name:			ZINC04218922
#	Creating user name:	trannguyen
#	Creation time:		Wed Dec  7 14:36:19 2022


#	Modifying user name:	trannguyen
#	Modification time:	Wed Dec  7 14:36:19 2022

@<TRIPOS>MOLECULE
ZINC04218922
 14 14 0 0 0
SMALL
GASTEIGER

@<TRIPOS>ATOM
      1 C          21.4529  -20.3519   15.6539 C.3     1  UNL1       -0.0218
      2 C          20.9442  -19.5922   14.4448 C.2     1  UNL1        0.2064
      3 O          20.5014  -20.0612   13.4184 O.2     1  UNL1       -0.2765
      4 N          21.0857  -18.2868   14.7488 N.am    1  UNL1       -0.2724
      5 C          21.6030  -18.1180   15.9710 C.2     1  UNL1        0.1343
      6 O          21.8193  -17.0305   16.4687 O.2     1  UNL1       -0.2969
      7 N          21.8603  -19.2864   16.5861 N.am    1  UNL1       -0.6134
      8 H          20.8390  -17.5487   14.1459 H       1  UNL1        0.1560
      9 C          20.3398  -21.2053   16.2651 C.3     1  UNL1        0.0127
     10 C          20.7405  -21.6293   17.6795 C.3     1  UNL1        0.1497
     11 C          19.5200  -24.1378   18.1823 C.3     1  UNL1        0.1760
     12 S          21.1073  -23.4057   17.6971 S.O2    1  UNL1       -0.0083
     13 O          21.4046  -23.8165   16.3697 O.2     1  UNL1       -0.1729
     14 O          22.0527  -23.6594   18.7271 O.2     1  UNL1       -0.1729
@<TRIPOS>UNITY_ATOM_ATTR
7 1
charge -1
@<TRIPOS>BOND
     1    11    12    1
     2    12    13    2
     3    12    14    2
     4    12    10    1
     5    10     9    1
     6     9     1    1
     7     1     7    1
     8     1     2    1
     9     2     3    2
    10     2     4   am
    11     4     5   am
    12     5     6    2
    13     5     7    1
    14     4     8    1
#	Name:			ZINC04221645
#	Creating user name:	trannguyen
#	Creation time:		Wed Dec  7 14:36:19 2022


#	Modifying user name:	trannguyen
#	Modification time:	Wed Dec  7 14:36:19 2022

@<TRIPOS>MOLECULE
ZINC04221645
 48 51 0 0 0
SMALL
GASTEIGER

@<TRIPOS>ATOM
      1 C          20.9311  -25.8102   14.9135 C.3     1  UNL1        0.2187
      2 C          22.0899  -26.3656   14.0859 C.3     1  UNL1        0.0783
      3 C          21.5859  -26.8862   12.7714 C.2     1  UNL1        0.0342
      4 C          20.4084  -26.5852   12.2681 C.2     1  UNL1        0.0208
      5 C          19.4166  -25.6848   12.9453 C.3     1  UNL1        0.2312
      6 C          20.1097  -24.8609   14.0324 C.3     1  UNL1        0.2541
      7 C          22.4568  -27.7902   12.0043 C.2     1  UNL1        0.2418
      8 O          22.5272  -28.9666   12.3045 O.2     1  UNL1       -0.2705
      9 N          23.1765  -27.3146   10.9688 N.am    1  UNL1       -0.3006
     10 H          23.1163  -26.3632   10.7233 H       1  UNL1        0.1497
     11 C          24.0484  -28.2136   10.2086 C.3     1  UNL1        0.0992
     12 C          24.4396  -27.5483    8.8875 C.3     1  UNL1        0.1060
     13 C          25.9154  -27.2435    8.8963 C.2     1  UNL1        0.2211
     14 O          26.3687  -26.4182    8.1319 O.2     1  UNL1       -0.2753
     15 N          26.7316  -27.8881    9.7535 N.am    1  UNL1       -0.3287
     16 H          26.3637  -28.5580   10.3740 H       1  UNL1        0.1449
     17 H          27.6957  -27.6889    9.7592 H       1  UNL1        0.1449
     18 O          21.4513  -25.0851   16.0589 O.3     1  UNL1       -0.4340
     19 N          19.4526  -25.4329   17.2114 N.am    1  UNL1       -0.2499
     20 C          20.5621  -24.6994   16.9935 C.2     1  UNL1        0.4054
     21 O          20.7599  -23.6900   17.6404 O.2     1  UNL1       -0.2261
     22 H          19.2539  -26.2076   16.6372 H       1  UNL1        0.1582
     23 C          16.8630  -24.4219   20.3147 C.ar    1  UNL1        0.0001
     24 C          17.8247  -25.3964   20.5084 C.ar    1  UNL1        0.0013
     25 C          18.6847  -25.7339   19.4817 C.ar    1  UNL1        0.0148
     26 C          18.5827  -25.0933   18.2538 C.ar    1  UNL1        0.0532
     27 C          17.6196  -24.1110   18.0642 C.ar    1  UNL1        0.0148
     28 C          16.7592  -23.7819   19.0933 C.ar    1  UNL1        0.0013
     29 O          20.9891  -23.8830   13.4171 O.3     1  UNL1       -0.4303
     30 C          20.8071  -22.5944   13.7626 C.2     1  UNL1        0.4055
     31 O          20.0614  -21.8901   13.1113 O.2     1  UNL1       -0.2261
     32 N          21.4524  -22.0856   14.8310 N.am    1  UNL1       -0.2499
     33 H          22.1119  -22.6336   15.3146 H       1  UNL1        0.1582
     34 C          21.1847  -20.7784   15.2529 C.ar    1  UNL1        0.0532
     35 C          21.7079  -19.7000   14.5515 C.ar    1  UNL1        0.0148
     36 C          21.4373  -18.4111   14.9670 C.ar    1  UNL1        0.0013
     37 C          20.6561  -18.1937   16.0872 C.ar    1  UNL1        0.0001
     38 C          20.1380  -19.2655   16.7909 C.ar    1  UNL1        0.0013
     39 C          20.4003  -20.5568   16.3771 C.ar    1  UNL1        0.0148
     40 O          18.3862  -26.4770   13.5396 O.3     1  UNL1       -0.4703
     41 C          17.2833  -25.8204   13.9865 C.ar    1  UNL1        0.1474
     42 C          16.8727  -24.6503   13.3657 C.ar    1  UNL1        0.0670
     43 C          15.7493  -23.9840   13.8223 C.ar    1  UNL1        0.1432
     44 C          15.0359  -24.4855   14.8984 C.ar    1  UNL1        0.0303
     45 C          15.4440  -25.6518   15.5175 C.ar    1  UNL1        0.0120
     46 C          16.5631  -26.3231   15.0613 C.ar    1  UNL1        0.0686
     47 BR         17.1163  -27.9223   15.9053 Br      1  UNL1       -0.0458
     48 F          15.3486  -22.8437   13.2187 F       1  UNL1       -0.2041
@<TRIPOS>BOND
     1    23    28   ar
     2    23    24   ar
     3    24    25   ar
     4    25    26   ar
     5    26    27   ar
     6    26    19    1
     7    27    28   ar
     8    19    20   am
     9    20    21    2
    10    20    18    1
    11    18     1    1
    12     1     6    1
    13     1     2    1
    14     2     3    1
    15     3     4    2
    16     3     7    1
    17     4     5    1
    18     5     6    1
    19     5    40    1
    20     6    29    1
    21    29    30    1
    22    30    31    2
    23    30    32   am
    24    32    34    1
    25    34    39   ar
    26    34    35   ar
    27    35    36   ar
    28    36    37   ar
    29    37    38   ar
    30    38    39   ar
    31    40    41    1
    32    41    46   ar
    33    41    42   ar
    34    42    43   ar
    35    43    44   ar
    36    43    48    1
    37    44    45   ar
    38    45    46   ar
    39    46    47    1
    40     7     8    2
    41     7     9   am
    42     9    11    1
    43    11    12    1
    44    12    13    1
    45    13    14    2
    46    13    15   am
    47    19    22    1
    48    32    33    1
    49     9    10    1
    50    15    16    1
    51    15    17    1
#	Name:			ZINC04237038
#	Creating user name:	trannguyen
#	Creation time:		Wed Dec  7 14:36:19 2022


#	Modifying user name:	trannguyen
#	Modification time:	Wed Dec  7 14:36:19 2022

@<TRIPOS>MOLECULE
ZINC04237038
 46 49 0 0 0
SMALL
GASTEIGER

@<TRIPOS>ATOM
      1 C          13.8679  -28.2352   16.7468 C.ar    1  UNL1        0.1649
      2 N          14.5713  -27.2534   16.2221 N.ar    1  UNL1       -0.2286
      3 C          15.7554  -26.8898   16.7093 C.ar    1  UNL1        0.0630
      4 C          16.1978  -27.5922   17.7840 C.ar    1  UNL1        0.0234
      5 S          14.8882  -28.7558   18.0544 S.2     1  UNL1       -0.0561
      6 C          17.4712  -27.4060   18.5304 C.3     1  UNL1        0.0344
      7 C          18.4173  -26.5205   17.6957 C.3     1  UNL1        0.0099
      8 C          17.6352  -25.3137   17.1719 C.3     1  UNL1        0.0063
      9 C          16.6003  -25.7641   16.1326 C.3     1  UNL1        0.0496
     10 C          18.5846  -24.3310   16.4781 C.3     1  UNL1        0.0029
     11 C          19.6775  -23.8763   17.4430 C.3     1  UNL1        0.0293
     12 C          20.4799  -25.1013   17.8919 C.3     1  UNL1        0.1127
     13 C          19.5433  -26.0589   18.6260 C.3     1  UNL1        0.0521
     14 C          20.3369  -27.2768   19.1034 C.3     1  UNL1        0.0049
     15 O          21.5301  -24.6910   18.7699 O.3     1  UNL1       -0.3844
     16 C          16.9249  -24.6188   18.3353 C.3     1  UNL1        0.0004
     17 H          21.1496  -24.2474   19.5440 H       1  UNL1        0.2103
     18 C          11.5000  -28.1934   16.8628 C.2     1  UNL1        0.2275
     19 O          11.5660  -27.2819   17.6602 O.2     1  UNL1       -0.2747
     20 N          12.6285  -28.7282   16.3558 N.am    1  UNL1       -0.2642
     21 H          12.5749  -29.4681   15.7085 H       1  UNL1        0.1567
     22 C          10.1563  -28.7279   16.4388 C.3     1  UNL1        0.0854
     23 C          10.2857  -29.4094   15.0751 C.3     1  UNL1        0.0096
     24 C           9.2303  -28.8461   14.1212 C.3     1  UNL1        0.0005
     25 C          11.4097  -28.4843   12.9543 C.3     1  UNL1        0.0000
     26 C           9.9227  -28.1242   12.9635 C.3     1  UNL1        0.0000
     27 C          18.9389  -25.3464   19.8376 C.3     1  UNL1        0.1393
     28 O          19.6800  -25.6893   21.0104 O.3     1  UNL1       -0.3819
     29 H          19.6424  -26.6488   21.1476 H       1  UNL1        0.2104
     30 C          15.6969  -24.5842   15.7684 C.3     1  UNL1        0.0909
     31 C          15.7923  -24.3164   14.2885 C.2     1  UNL1        0.2229
     32 O          15.1012  -23.4583   13.7818 O.2     1  UNL1       -0.2751
     33 N          16.6458  -25.0304   13.5281 N.am    1  UNL1       -0.3040
     34 H          17.2070  -25.7270   13.9395 H       1  UNL1        0.1494
     35 C          16.7386  -24.7699   12.0895 C.3     1  UNL1        0.0941
     36 C          18.1663  -25.0444   11.6124 C.3     1  UNL1        0.0477
     37 C          19.1403  -24.2982   12.4871 C.ar    1  UNL1       -0.0173
     38 C          18.9578  -22.9489   12.7276 C.ar    1  UNL1       -0.0009
     39 C          19.8482  -22.2600   13.5297 C.ar    1  UNL1        0.0397
     40 C          20.9270  -22.9215   14.0944 C.ar    1  UNL1        0.1724
     41 C          21.1110  -24.2793   13.8520 C.ar    1  UNL1        0.1721
     42 C          20.2179  -24.9628   13.0424 C.ar    1  UNL1        0.0358
     43 O          22.1681  -24.9330   14.4039 O.3     1  UNL1       -0.4684
     44 C          23.2502  -25.2684   13.5330 C.3     1  UNL1        0.2526
     45 O          21.8042  -22.2451   14.8834 O.3     1  UNL1       -0.4684
     46 C          21.7523  -20.8178   14.8357 C.3     1  UNL1        0.2526
@<TRIPOS>BOND
     1    25    26    1
     2    26    24    1
     3    24    23    1
     4    23    22    1
     5    22    18    1
     6    18    19    2
     7    18    20   am
     8    20     1    1
     9     1     5   ar
    10     1     2   ar
    11     2     3   ar
    12     3     9    1
    13     3     4   ar
    14     4     5   ar
    15     4     6    1
    16     6     7    1
    17     7    13    1
    18     7     8    1
    19     8     9    1
    20     8    10    1
    21     8    16    1
    22     9    30    1
    23    30    31    1
    24    31    32    2
    25    31    33   am
    26    33    35    1
    27    35    36    1
    28    36    37    1
    29    37    42   ar
    30    37    38   ar
    31    38    39   ar
    32    39    40   ar
    33    40    41   ar
    34    40    45    1
    35    41    42   ar
    36    41    43    1
    37    43    44    1
    38    45    46    1
    39    10    11    1
    40    11    12    1
    41    12    13    1
    42    12    15    1
    43    13    14    1
    44    13    27    1
    45    27    28    1
    46    20    21    1
    47    33    34    1
    48    28    29    1
    49    15    17    1
#	Name:			ZINC04261189
#	Creating user name:	trannguyen
#	Creation time:		Wed Dec  7 14:36:20 2022


#	Modifying user name:	trannguyen
#	Modification time:	Wed Dec  7 14:36:20 2022

@<TRIPOS>MOLECULE
ZINC04261189
 43 46 0 0 0
SMALL
GASTEIGER

@<TRIPOS>ATOM
      1 C          14.8539  -26.3814   14.5080 C.2     1  UNL1        0.3184
      2 O          15.5664  -26.5257   15.4810 O.2     1  UNL1       -0.2634
      3 N          15.1722  -25.4683   13.5691 N.am    1  UNL1       -0.1985
      4 H          14.5946  -25.3513   12.7804 H       1  UNL1        0.1777
      5 N          12.4435  -26.7634   14.8124 N.am    1  UNL1       -0.2765
      6 C          13.6272  -27.2144   14.3523 C.2     1  UNL1        0.3048
      7 O          13.6948  -28.2989   13.8111 O.2     1  UNL1       -0.2648
      8 H          12.3997  -25.9149   15.3099 H       1  UNL1        0.1553
      9 C          10.6933  -28.2257   15.6280 C.ar    1  UNL1        0.0671
     10 C           9.5288  -28.9579   15.3857 C.ar    1  UNL1        0.0058
     11 C           8.9677  -28.9604   14.1270 C.ar    1  UNL1        0.0002
     12 C           9.5525  -28.2391   13.0985 C.ar    1  UNL1        0.0013
     13 C          10.7004  -27.5065   13.3237 C.ar    1  UNL1        0.0148
     14 C          11.2835  -27.4967   14.5844 C.ar    1  UNL1        0.0550
     15 N          10.5572  -27.8734   18.0441 N.am    1  UNL1       -0.2803
     16 C          11.2988  -28.2184   16.9730 C.2     1  UNL1        0.2507
     17 O          12.4672  -28.5238   17.1154 O.2     1  UNL1       -0.2698
     18 H           9.6311  -27.5622   17.9220 H       1  UNL1        0.1552
     19 C          12.7699  -28.2136   23.2560 C.3     1  UNL1        0.0310
     20 C          12.1823  -28.1233   21.8712 C.ar    1  UNL1       -0.0218
     21 C          12.4410  -27.0171   21.0828 C.ar    1  UNL1       -0.0030
     22 C          11.9036  -26.9311   19.8134 C.ar    1  UNL1        0.0144
     23 C          11.1028  -27.9574   19.3289 C.ar    1  UNL1        0.0505
     24 C          10.8406  -29.0645   20.1255 C.ar    1  UNL1        0.0144
     25 C          11.3857  -29.1470   21.3917 C.ar    1  UNL1       -0.0030
     26 N          16.3248  -24.6856   13.7155 N.2     1  UNL1       -0.1772
     27 C          17.2274  -24.6772   12.7809 C.2     1  UNL1        0.1177
     28 C          18.4397  -23.8541   12.9349 C.ar    1  UNL1        0.0239
     29 C          18.3481  -22.4596   12.9065 C.ar    1  UNL1        0.0049
     30 C          19.4829  -21.6913   13.0565 C.ar    1  UNL1        0.0401
     31 C          20.7189  -22.2990   13.2252 C.ar    1  UNL1        0.1727
     32 C          20.8180  -23.6886   13.2546 C.ar    1  UNL1        0.1724
     33 C          19.6843  -24.4657   13.1103 C.ar    1  UNL1        0.0416
     34 O          22.0306  -24.2803   13.4250 O.3     1  UNL1       -0.4684
     35 C          22.0631  -25.4825   14.1969 C.3     1  UNL1        0.2526
     36 O          21.8352  -21.5367   13.3678 O.3     1  UNL1       -0.4676
     37 C          22.3851  -21.4313   14.6825 C.3     1  UNL1        0.2321
     38 C          21.4722  -20.5969   15.5436 C.ar    1  UNL1        0.0212
     39 C          20.7503  -21.1899   16.5624 C.ar    1  UNL1       -0.0007
     40 C          19.9128  -20.4245   17.3521 C.ar    1  UNL1       -0.0002
     41 C          19.7973  -19.0662   17.1231 C.ar    1  UNL1       -0.0000
     42 C          20.5197  -18.4731   16.1045 C.ar    1  UNL1       -0.0002
     43 C          21.3571  -19.2386   15.3148 C.ar    1  UNL1       -0.0007
@<TRIPOS>BOND
     1    19    20    1
     2    20    25   ar
     3    20    21   ar
     4    21    22   ar
     5    22    23   ar
     6    23    24   ar
     7    23    15    1
     8    24    25   ar
     9    15    16   am
    10    16    17    2
    11    16     9    1
    12     9    14   ar
    13     9    10   ar
    14    10    11   ar
    15    11    12   ar
    16    12    13   ar
    17    13    14   ar
    18    14     5    1
    19     5     6   am
    20     6     7    2
    21     6     1    1
    22     1     2    2
    23     1     3   am
    24     3    26    1
    25    26    27    2
    26    27    28    1
    27    28    33   ar
    28    28    29   ar
    29    29    30   ar
    30    30    31   ar
    31    31    32   ar
    32    31    36    1
    33    32    33   ar
    34    32    34    1
    35    34    35    1
    36    36    37    1
    37    37    38    1
    38    38    43   ar
    39    38    39   ar
    40    39    40   ar
    41    40    41   ar
    42    41    42   ar
    43    42    43   ar
    44    15    18    1
    45     5     8    1
    46     3     4    1
#	Name:			ZINC04282272
#	Creating user name:	trannguyen
#	Creation time:		Wed Dec  7 14:36:19 2022


#	Modifying user name:	trannguyen
#	Modification time:	Wed Dec  7 14:36:19 2022

@<TRIPOS>MOLECULE
ZINC04282272
 48 52 0 0 0
SMALL
GASTEIGER

@<TRIPOS>ATOM
      1 C          13.6081  -26.3918   15.9399 C.2     1  UNL1        0.3184
      2 O          14.6713  -26.6152   16.4829 O.2     1  UNL1       -0.2634
      3 N          13.5382  -25.4913   14.9397 N.am    1  UNL1       -0.1985
      4 H          12.6764  -25.3103   14.4996 H       1  UNL1        0.1777
      5 N          12.4340  -27.9569   17.4303 N.am    1  UNL1       -0.2765
      6 C          12.3802  -27.1140   16.3800 C.2     1  UNL1        0.3048
      7 O          11.3319  -26.9428   15.7921 O.2     1  UNL1       -0.2648
      8 H          13.2965  -28.1473   17.8650 H       1  UNL1        0.1553
      9 C          10.7829  -29.7234   17.2900 C.ar    1  UNL1        0.0671
     10 C           9.6139  -30.3170   17.7719 C.ar    1  UNL1        0.0058
     11 C           8.9482  -29.7565   18.8404 C.ar    1  UNL1        0.0002
     12 C           9.4324  -28.6054   19.4409 C.ar    1  UNL1        0.0013
     13 C          10.5890  -28.0102   18.9794 C.ar    1  UNL1        0.0148
     14 C          11.2706  -28.5578   17.9003 C.ar    1  UNL1        0.0550
     15 N          11.0416  -30.1339   14.8932 N.am    1  UNL1       -0.2803
     16 C          11.5005  -30.3184   16.1470 C.2     1  UNL1        0.2507
     17 O          12.5062  -30.9755   16.3358 O.2     1  UNL1       -0.2698
     18 H          10.2756  -29.5368   14.7323 H       1  UNL1        0.1552
     19 C          12.8649  -32.0913   11.6954 C.ar    1  UNL1        0.1386
     20 C          11.8195  -32.6991   12.3753 C.ar    1  UNL1        0.0382
     21 C          11.2152  -32.0514   13.4344 C.ar    1  UNL1        0.0178
     22 C          11.6544  -30.7915   13.8194 C.ar    1  UNL1        0.0507
     23 C          12.6977  -30.1817   13.1352 C.ar    1  UNL1        0.0178
     24 C          13.3046  -30.8329   12.0796 C.ar    1  UNL1        0.0382
     25 O          13.4592  -32.7296   10.6521 O.3     1  UNL1       -0.4755
     26 C          15.3281  -34.0859    9.9393 C.3     1  UNL1        0.0512
     27 C          14.8853  -32.8188   10.6736 C.3     1  UNL1        0.2055
     28 N          14.6921  -24.8128   14.5262 N.2     1  UNL1       -0.1772
     29 C          15.4504  -25.3236   13.6030 C.2     1  UNL1        0.1176
     30 C          16.6639  -24.6101   13.1681 C.ar    1  UNL1        0.0209
     31 C          16.7683  -23.2281   13.3514 C.ar    1  UNL1        0.0047
     32 C          17.9051  -22.5652   12.9436 C.ar    1  UNL1        0.0377
     33 C          18.9469  -23.2681   12.3513 C.ar    1  UNL1        0.1488
     34 C          18.8455  -24.6407   12.1622 C.ar    1  UNL1        0.0377
     35 C          17.7146  -25.3130   12.5712 C.ar    1  UNL1        0.0047
     36 O          20.0658  -22.6103   11.9508 O.3     1  UNL1       -0.4210
     37 C          20.9955  -22.3544   12.8927 C.2     1  UNL1        0.3457
     38 O          21.7639  -23.2290   13.2416 O.2     1  UNL1       -0.2445
     39 C          21.0841  -21.0130   13.4948 C.ar    1  UNL1        0.0760
     40 C          21.5589  -19.9347   12.7581 C.ar    1  UNL1        0.0065
     41 C          21.6368  -18.6709   13.3267 C.ar    1  UNL1        0.0002
     42 C          21.2657  -18.4392   14.6158 C.ar    1  UNL1        0.0000
     43 C          20.7815  -19.4837   15.4211 C.ar    1  UNL1        0.0002
     44 C          20.6803  -20.7894   14.8813 C.ar    1  UNL1        0.0062
     45 C          20.1992  -21.8332   15.6807 C.ar    1  UNL1        0.0002
     46 C          19.8336  -21.5812   16.9695 C.ar    1  UNL1        0.0000
     47 C          19.9322  -20.2985   17.5035 C.ar    1  UNL1        0.0000
     48 C          20.3957  -19.2605   16.7542 C.ar    1  UNL1        0.0000
@<TRIPOS>BOND
     1    26    27    1
     2    27    25    1
     3    25    19    1
     4    19    24   ar
     5    19    20   ar
     6    20    21   ar
     7    21    22   ar
     8    22    23   ar
     9    22    15    1
    10    23    24   ar
    11    15    16   am
    12    16    17    2
    13    16     9    1
    14     9    14   ar
    15     9    10   ar
    16    10    11   ar
    17    11    12   ar
    18    12    13   ar
    19    13    14   ar
    20    14     5    1
    21     5     6   am
    22     6     7    2
    23     6     1    1
    24     1     2    2
    25     1     3   am
    26     3    28    1
    27    28    29    2
    28    29    30    1
    29    30    35   ar
    30    30    31   ar
    31    31    32   ar
    32    32    33   ar
    33    33    34   ar
    34    33    36    1
    35    34    35   ar
    36    36    37    1
    37    37    38    2
    38    37    39    1
    39    39    44   ar
    40    39    40   ar
    41    40    41   ar
    42    41    42   ar
    43    42    43   ar
    44    43    48   ar
    45    43    44   ar
    46    44    45   ar
    47    45    46   ar
    48    46    47   ar
    49    47    48   ar
    50    15    18    1
    51     5     8    1
    52     3     4    1
#	Name:			ZINC04287276
#	Creating user name:	trannguyen
#	Creation time:		Wed Dec  7 14:36:20 2022


#	Modifying user name:	trannguyen
#	Modification time:	Wed Dec  7 14:36:20 2022

@<TRIPOS>MOLECULE
ZINC04287276
 42 44 0 0 0
SMALL
GASTEIGER

@<TRIPOS>ATOM
      1 N          13.6938  -26.6517   15.3409 N.2     1  UNL1       -0.1776
      2 C          14.5731  -27.2122   16.1138 C.2     1  UNL1        0.1177
      3 C          15.5321  -26.3806   16.8636 C.ar    1  UNL1        0.0239
      4 C          16.1349  -25.2799   16.2490 C.ar    1  UNL1        0.0049
      5 C          17.0311  -24.5031   16.9521 C.ar    1  UNL1        0.0408
      6 C          17.3369  -24.8114   18.2700 C.ar    1  UNL1        0.1824
      7 C          16.7395  -25.9073   18.8893 C.ar    1  UNL1        0.1731
      8 C          15.8400  -26.6908   18.1905 C.ar    1  UNL1        0.0417
      9 O          17.0373  -26.2031   20.1827 O.3     1  UNL1       -0.4683
     10 C          15.9378  -26.3646   21.0809 C.3     1  UNL1        0.2526
     11 O          18.2208  -24.0420   18.9587 O.3     1  UNL1       -0.4179
     12 C          19.5223  -24.1641   18.6320 C.2     1  UNL1        0.3458
     13 O          20.2144  -24.9909   19.1924 O.2     1  UNL1       -0.2445
     14 C          20.1067  -23.2944   17.5946 C.ar    1  UNL1        0.0762
     15 C          20.0714  -21.9048   17.7433 C.ar    1  UNL1        0.0096
     16 C          20.6221  -21.0965   16.7743 C.ar    1  UNL1        0.0371
     17 C          21.2037  -21.6600   15.6444 C.ar    1  UNL1        0.1386
     18 C          21.2367  -23.0412   15.4903 C.ar    1  UNL1        0.0371
     19 C          20.6926  -23.8569   16.4567 C.ar    1  UNL1        0.0096
     20 O          21.7411  -20.8596   14.6895 O.3     1  UNL1       -0.4755
     21 C          20.8317  -20.0871   13.9032 C.3     1  UNL1        0.2054
     22 C          21.3665  -18.6608   13.7589 C.3     1  UNL1        0.0473
     23 C          22.1525  -18.2814   15.0155 C.3     1  UNL1        0.0040
     24 C          11.6175  -26.9123   14.2058 C.2     1  UNL1        0.2612
     25 O          11.3579  -25.7511   14.4425 O.2     1  UNL1       -0.2715
     26 N          12.7825  -27.4420   14.6282 N.am    1  UNL1       -0.2044
     27 H          12.9932  -28.3843   14.4360 H       1  UNL1        0.1773
     28 C          10.6373  -27.7623   13.4393 C.3     1  UNL1        0.1776
     29 C          10.9130  -30.1821   13.3657 C.2     1  UNL1        0.2462
     30 O           9.9899  -30.2817   14.1507 O.2     1  UNL1       -0.2701
     31 N          11.3139  -28.9651   12.9478 N.am    1  UNL1       -0.2931
     32 H          12.0614  -28.8844   12.3122 H       1  UNL1        0.1502
     33 C          12.8747  -33.6688   11.9411 C.ar    1  UNL1        0.1386
     34 C          13.4469  -32.4188   11.7359 C.ar    1  UNL1        0.0370
     35 C          12.8140  -31.2859   12.1964 C.ar    1  UNL1        0.0076
     36 C          11.5947  -31.3940   12.8704 C.ar    1  UNL1        0.0536
     37 C          11.0254  -32.6529   13.0793 C.ar    1  UNL1        0.0076
     38 C          11.6618  -33.7806   12.6106 C.ar    1  UNL1        0.0370
     39 O          13.5017  -34.7831   11.4861 O.3     1  UNL1       -0.4755
     40 C          12.9469  -35.4133   10.3299 C.3     1  UNL1        0.2054
     41 C          13.0724  -35.5422    7.8379 C.3     1  UNL1        0.0040
     42 C          13.7823  -35.0500    9.1007 C.3     1  UNL1        0.0473
@<TRIPOS>BOND
     1    41    42    1
     2    42    40    1
     3    40    39    1
     4    39    33    1
     5    33    38   ar
     6    33    34   ar
     7    34    35   ar
     8    35    36   ar
     9    36    37   ar
    10    36    29    1
    11    37    38   ar
    12    29    30    2
    13    29    31   am
    14    31    28    1
    15    28    24    1
    16    24    25    2
    17    24    26   am
    18    26     1    1
    19     1     2    2
    20     2     3    1
    21     3     8   ar
    22     3     4   ar
    23     4     5   ar
    24     5     6   ar
    25     6     7   ar
    26     6    11    1
    27     7     8   ar
    28     7     9    1
    29     9    10    1
    30    11    12    1
    31    12    13    2
    32    12    14    1
    33    14    19   ar
    34    14    15   ar
    35    15    16   ar
    36    16    17   ar
    37    17    18   ar
    38    17    20    1
    39    18    19   ar
    40    20    21    1
    41    21    22    1
    42    22    23    1
    43    31    32    1
    44    26    27    1
#	Name:			ZINC04335854
#	Creating user name:	trannguyen
#	Creation time:		Wed Dec  7 14:36:19 2022


#	Modifying user name:	trannguyen
#	Modification time:	Wed Dec  7 14:36:19 2022

@<TRIPOS>MOLECULE
ZINC04335854
 47 50 0 0 0
SMALL
GASTEIGER

@<TRIPOS>ATOM
      1 N          21.4220  -25.3808   13.3391 N.am    1  UNL1       -0.1985
      2 C          22.1313  -24.3684   13.8761 C.2     1  UNL1        0.3184
      3 O          23.3436  -24.4313   13.9172 O.2     1  UNL1       -0.2634
      4 H          20.4393  -25.3299   13.3057 H       1  UNL1        0.1777
      5 C          21.4280  -23.1713   14.4195 C.2     1  UNL1        0.3048
      6 O          20.3596  -22.8317   13.9538 O.2     1  UNL1       -0.2648
      7 N          21.9784  -22.4664   15.4277 N.am    1  UNL1       -0.2765
      8 H          22.8120  -22.7781   15.8486 H       1  UNL1        0.1553
      9 C          21.3683  -21.2983   15.8737 C.ar    1  UNL1        0.0550
     10 C          21.5913  -20.0977   15.2119 C.ar    1  UNL1        0.0148
     11 C          20.9811  -18.9411   15.6534 C.ar    1  UNL1        0.0013
     12 C          20.1520  -18.9654   16.7634 C.ar    1  UNL1        0.0002
     13 C          19.9234  -20.1463   17.4360 C.ar    1  UNL1        0.0058
     14 C          20.5294  -21.3261   16.9981 C.ar    1  UNL1        0.0668
     15 C          20.2885  -22.5938   17.7132 C.2     1  UNL1        0.2470
     16 O          21.2192  -23.1976   18.2107 O.2     1  UNL1       -0.2701
     17 N          19.0367  -23.0826   17.8150 N.am    1  UNL1       -0.3025
     18 H          18.2830  -22.5937   17.4122 H       1  UNL1        0.1497
     19 C          18.7974  -24.3415   18.5251 C.3     1  UNL1        0.0719
     20 C          18.4205  -25.4309   17.5191 C.3     1  UNL1        0.0196
     21 C          18.1706  -26.7455   18.2607 C.3     1  UNL1        0.0017
     22 C          17.0282  -26.5577   19.2609 C.3     1  UNL1        0.0001
     23 C          17.4051  -25.4684   20.2669 C.3     1  UNL1        0.0017
     24 C          17.6549  -24.1537   19.5254 C.3     1  UNL1        0.0196
     25 C          21.4149  -27.4144   12.1835 C.2     1  UNL1        0.1177
     26 N          22.0828  -26.5056   12.8284 N.2     1  UNL1       -0.1772
     27 C          23.4115  -30.8271   10.6302 C.ar    1  UNL1        0.1824
     28 C          22.1292  -30.9491   11.1470 C.ar    1  UNL1        0.0408
     29 C          21.4773  -29.8438   11.6503 C.ar    1  UNL1        0.0049
     30 C          22.1100  -28.5973   11.6464 C.ar    1  UNL1        0.0239
     31 C          23.4035  -28.4759   11.1311 C.ar    1  UNL1        0.0417
     32 C          24.0508  -29.5888   10.6281 C.ar    1  UNL1        0.1729
     33 O          24.0475  -31.9191   10.1301 O.3     1  UNL1       -0.4179
     34 C          24.1968  -32.9724   10.9571 C.2     1  UNL1        0.3458
     35 O          23.3309  -33.8226   11.0204 O.2     1  UNL1       -0.2445
     36 C          27.6920  -33.3203   13.3415 C.ar    1  UNL1        0.1386
     37 C          27.7503  -32.6633   12.1179 C.ar    1  UNL1        0.0371
     38 C          26.6192  -32.5481   11.3415 C.ar    1  UNL1        0.0096
     39 C          25.4108  -33.0932   11.7853 C.ar    1  UNL1        0.0762
     40 C          25.3552  -33.7480   13.0192 C.ar    1  UNL1        0.0096
     41 C          26.4925  -33.8641   13.7865 C.ar    1  UNL1        0.0371
     42 O          28.8092  -33.4315   14.1037 O.3     1  UNL1       -0.4755
     43 C          29.3626  -31.4260   15.3334 C.3     1  UNL1        0.0512
     44 C          29.6926  -32.3085   14.1279 C.3     1  UNL1        0.2055
     45 O          25.3093  -29.4743   10.1261 O.3     1  UNL1       -0.4724
     46 C          25.9542  -28.2078   10.2746 C.3     1  UNL1        0.2057
     47 C          25.9403  -27.4682    8.9353 C.3     1  UNL1        0.0512
@<TRIPOS>BOND
     1    43    44    1
     2    44    42    1
     3    42    36    1
     4    36    41   ar
     5    36    37   ar
     6    37    38   ar
     7    38    39   ar
     8    39    40   ar
     9    39    34    1
    10    40    41   ar
    11    34    35    2
    12    34    33    1
    13    33    27    1
    14    27    32   ar
    15    27    28   ar
    16    28    29   ar
    17    29    30   ar
    18    30    31   ar
    19    30    25    1
    20    31    32   ar
    21    32    45    1
    22    45    46    1
    23    46    47    1
    24    25    26    2
    25    26     1    1
    26     1     2   am
    27     2     3    2
    28     2     5    1
    29     5     6    2
    30     5     7   am
    31     7     9    1
    32     9    14   ar
    33     9    10   ar
    34    10    11   ar
    35    11    12   ar
    36    12    13   ar
    37    13    14   ar
    38    14    15    1
    39    15    16    2
    40    15    17   am
    41    17    19    1
    42    19    24    1
    43    19    20    1
    44    20    21    1
    45    21    22    1
    46    22    23    1
    47    23    24    1
    48     1     4    1
    49     7     8    1
    50    17    18    1
#	Name:			ZINC04344144
#	Creating user name:	trannguyen
#	Creation time:		Wed Dec  7 14:36:19 2022


#	Modifying user name:	trannguyen
#	Modification time:	Wed Dec  7 14:36:19 2022

@<TRIPOS>MOLECULE
ZINC04344144
 15 15 0 0 0
SMALL
GASTEIGER

@<TRIPOS>ATOM
      1 C          21.2419  -21.3514   14.3228 C.ar    1  UNL1        0.0367
      2 C          21.1944  -20.9387   13.0078 C.ar    1  UNL1        0.1003
      3 C          21.5987  -18.7465   13.6055 C.ar    1  UNL1        0.1241
      4 C          21.6673  -19.0780   14.9420 C.ar    1  UNL1        0.1749
      5 C          21.4833  -20.4078   15.3208 C.ar    1  UNL1        0.0707
      6 N          21.3708  -19.6486   12.6120 N.ar    1  UNL1       -0.2405
      7 N          21.9265  -18.0364   15.9611 N.pl3   1  UNL1        0.0605
      8 O          21.0478  -17.2495   16.2648 O.2     1  UNL1       -0.1260
      9 O          23.0185  -17.9662   16.4960 O.2     1  UNL1       -0.1260
     10 N          21.5386  -20.7830   16.6598 N.pl3   1  UNL1       -0.3267
     11 H          22.3847  -20.7080   17.1574 H       1  UNL1        0.1472
     12 C          20.3377  -21.2895   17.3288 C.3     1  UNL1        0.1296
     13 C          20.5884  -22.6937   17.8155 C.2     1  UNL1        0.0701
     14 O          19.9371  -23.1418   18.7291 O.co2   1  UNL1       -0.5474
     15 O          21.5354  -23.4465   17.2338 O.co2   1  UNL1       -0.5474
@<TRIPOS>UNITY_ATOM_ATTR
15 1
charge -1
@<TRIPOS>BOND
     1     1     5   ar
     2     1     2   ar
     3     2     6   ar
     4     3     4   ar
     5     3     6   ar
     6     4     5   ar
     7     4     7    1
     8     5    10    1
     9    10    12    1
    10    12    13    1
    11    13    14   ar
    12    13    15   ar
    13     7     8    2
    14     7     9    2
    15    10    11    1
#	Name:			ZINC04346153
#	Creating user name:	trannguyen
#	Creation time:		Wed Dec  7 14:36:19 2022


#	Modifying user name:	trannguyen
#	Modification time:	Wed Dec  7 14:36:19 2022

@<TRIPOS>MOLECULE
ZINC04346153
 31 33 0 0 0
SMALL
GASTEIGER

@<TRIPOS>ATOM
      1 C          20.5788  -22.7546   16.3097 C.ar    1  UNL1        0.0311
      2 C          20.0947  -21.9584   17.3411 C.ar    1  UNL1        0.0081
      3 C          20.3254  -20.5973   17.3268 C.ar    1  UNL1        0.0246
      4 C          21.0430  -20.0267   16.2910 C.ar    1  UNL1        0.1428
      5 C          21.5310  -20.8165   15.2661 C.ar    1  UNL1        0.0260
      6 C          21.3037  -22.1786   15.2737 C.ar    1  UNL1        0.0402
      7 N          21.2888  -18.5670   16.2793 N.pl3   1  UNL1        0.0577
      8 O          22.4206  -18.1388   16.4178 O.2     1  UNL1       -0.1261
      9 O          20.3592  -17.7941   16.1312 O.2     1  UNL1       -0.1261
     10 S          20.2796  -24.4909   16.3195 S.3     1  UNL1       -0.0871
     11 C          14.4042  -24.9667   15.0197 C.3     1  UNL1        0.0310
     12 C          15.8711  -24.8476   15.3443 C.ar    1  UNL1       -0.0218
     13 C          16.3243  -25.1589   16.6134 C.ar    1  UNL1       -0.0037
     14 C          17.6676  -25.0514   16.9143 C.ar    1  UNL1        0.0062
     15 C          18.5646  -24.6300   15.9400 C.ar    1  UNL1        0.0294
     16 C          18.1049  -24.3132   14.6674 C.ar    1  UNL1        0.0062
     17 C          16.7609  -24.4279   14.3723 C.ar    1  UNL1       -0.0037
     18 C          21.8359  -23.0385   14.1563 C.3     1  UNL1        0.1303
     19 N          23.2552  -23.3448   14.4161 N.4     1  UNL1        0.2579
     20 H          23.3203  -24.0111   15.1857 H       1  UNL1        0.2039
     21 H          23.7418  -22.4819   14.6590 H       1  UNL1        0.2039
     22 C          23.8818  -23.9270   13.2142 C.3     1  UNL1        0.1089
     23 C          23.6630  -25.4412   13.2183 C.3     1  UNL1        0.1215
     24 C          24.5766  -26.0913   12.1773 C.3     1  UNL1        0.1117
     25 C          24.0328  -27.4622   10.2558 C.3     1  UNL1        0.1380
     26 C          23.4230  -28.7995    9.8272 C.3     1  UNL1        0.2029
     27 O          22.0762  -28.8775   10.3018 O.3     1  UNL1       -0.3412
     28 C          21.9586  -28.7609   11.7223 C.3     1  UNL1        0.2029
     29 C          22.5535  -27.4233   12.1702 C.3     1  UNL1        0.1380
     30 N          23.9629  -27.3598   11.7284 N.4     1  UNL1        0.2799
     31 H          24.4762  -28.1390   12.1405 H       1  UNL1        0.2069
@<TRIPOS>UNITY_ATOM_ATTR
19 1
charge 1
30 1
charge 1
@<TRIPOS>BOND
     1    11    12    1
     2    12    17   ar
     3    12    13   ar
     4    13    14   ar
     5    14    15   ar
     6    15    16   ar
     7    15    10    1
     8    16    17   ar
     9    10     1    1
    10     1     6   ar
    11     1     2   ar
    12     2     3   ar
    13     3     4   ar
    14     4     5   ar
    15     4     7    1
    16     5     6   ar
    17     6    18    1
    18    18    19    1
    19    22    23    1
    20    22    19    1
    21    23    24    1
    22    24    30    1
    23    25    26    1
    24    25    30    1
    25    26    27    1
    26    27    28    1
    27    28    29    1
    28    29    30    1
    29     7     8    2
    30     7     9    2
    31    19    20    1
    32    19    21    1
    33    30    31    1
#	Name:			ZINC04354636
#	Creating user name:	trannguyen
#	Creation time:		Wed Dec  7 14:36:19 2022


#	Modifying user name:	trannguyen
#	Modification time:	Wed Dec  7 14:36:19 2022

@<TRIPOS>MOLECULE
ZINC04354636
 42 45 0 0 0
SMALL
GASTEIGER

@<TRIPOS>ATOM
      1 C          20.5717  -23.2314   16.6700 C.ar    1  UNL1        0.1502
      2 C          19.8766  -22.5612   17.6758 C.ar    1  UNL1        0.0377
      3 C          19.7555  -21.2075   17.6825 C.ar    1  UNL1        0.0031
      4 C          20.3367  -20.4280   16.6667 C.ar    1  UNL1        0.0002
      5 C          20.2162  -19.0279   16.6627 C.ar    1  UNL1        0.0000
      6 C          20.7918  -18.3052   15.6624 C.ar    1  UNL1        0.0000
      7 C          21.4992  -18.9323   14.6396 C.ar    1  UNL1        0.0000
      8 C          21.6353  -20.2884   14.6122 C.ar    1  UNL1        0.0001
      9 C          21.0566  -21.0626   15.6252 C.ar    1  UNL1        0.0045
     10 C          21.1773  -22.5192   15.6350 C.ar    1  UNL1        0.0553
     11 C          21.9156  -23.2185   14.5739 C.2     1  UNL1        0.1206
     12 N          23.1496  -23.5772   14.7688 N.2     1  UNL1       -0.1774
     13 N          23.8880  -24.1443   13.7219 N.am    1  UNL1       -0.2044
     14 C          24.1069  -23.4407   12.5934 C.2     1  UNL1        0.2612
     15 O          23.5930  -22.3514   12.4484 O.2     1  UNL1       -0.2715
     16 H          24.2470  -25.0568   13.8105 H       1  UNL1        0.1773
     17 C          24.9905  -24.0071   11.5119 C.3     1  UNL1        0.1776
     18 N          24.4765  -25.3146   11.0964 N.am    1  UNL1       -0.2931
     19 C          25.0035  -26.4415   11.6149 C.2     1  UNL1        0.2463
     20 O          25.9054  -26.3730   12.4274 O.2     1  UNL1       -0.2701
     21 H          23.7461  -25.3701   10.4385 H       1  UNL1        0.1502
     22 C          24.4898  -27.7591   11.1918 C.ar    1  UNL1        0.0566
     23 C          25.3552  -28.6993   10.6271 C.ar    1  UNL1        0.0078
     24 C          24.8752  -29.9306   10.2372 C.ar    1  UNL1        0.0402
     25 C          23.5301  -30.2363   10.3941 C.ar    1  UNL1        0.1724
     26 C          22.6600  -29.3008   10.9520 C.ar    1  UNL1        0.1725
     27 C          23.1360  -28.0666   11.3500 C.ar    1  UNL1        0.0446
     28 O          21.3430  -29.6034   11.1049 O.3     1  UNL1       -0.4684
     29 C          20.9300  -30.0718   12.3902 C.3     1  UNL1        0.2526
     30 O          23.0609  -31.4495   10.0038 O.3     1  UNL1       -0.4684
     31 C          23.6324  -32.5987   10.6318 C.3     1  UNL1        0.2526
     32 O          20.6629  -24.5859   16.7004 O.3     1  UNL1       -0.4210
     33 C          19.5351  -25.2807   16.4526 C.2     1  UNL1        0.3457
     34 O          19.0443  -25.9728   17.3226 O.2     1  UNL1       -0.2445
     35 C          17.6967  -25.0514   12.6329 C.ar    1  UNL1        0.1387
     36 C          18.8067  -25.8671   12.8199 C.ar    1  UNL1        0.0371
     37 C          19.4060  -25.9444   14.0571 C.ar    1  UNL1        0.0096
     38 C          18.8966  -25.2011   15.1259 C.ar    1  UNL1        0.0762
     39 C          17.7766  -24.3865   14.9348 C.ar    1  UNL1        0.0096
     40 C          17.1873  -24.3102   13.6928 C.ar    1  UNL1        0.0371
     41 C          16.1491  -23.9380   11.2152 C.3     1  UNL1        0.2525
     42 O          17.1091  -24.9782   11.4118 O.3     1  UNL1       -0.4714
@<TRIPOS>BOND
     1    41    42    1
     2    42    35    1
     3    35    40   ar
     4    35    36   ar
     5    36    37   ar
     6    37    38   ar
     7    38    39   ar
     8    38    33    1
     9    39    40   ar
    10    33    34    2
    11    33    32    1
    12    32     1    1
    13     1    10   ar
    14     1     2   ar
    15     2     3   ar
    16     3     4   ar
    17     4     9   ar
    18     4     5   ar
    19     5     6   ar
    20     6     7   ar
    21     7     8   ar
    22     8     9   ar
    23     9    10   ar
    24    10    11    1
    25    11    12    2
    26    12    13    1
    27    13    14   am
    28    14    15    2
    29    14    17    1
    30    17    18    1
    31    18    19   am
    32    19    20    2
    33    19    22    1
    34    22    27   ar
    35    22    23   ar
    36    23    24   ar
    37    24    25   ar
    38    25    26   ar
    39    25    30    1
    40    26    27   ar
    41    26    28    1
    42    28    29    1
    43    30    31    1
    44    13    16    1
    45    18    21    1
#	Name:			ZINC04458647
#	Creating user name:	trannguyen
#	Creation time:		Wed Dec  7 14:36:19 2022


#	Modifying user name:	trannguyen
#	Modification time:	Wed Dec  7 14:36:19 2022

@<TRIPOS>MOLECULE
ZINC04458647
 40 43 0 0 0
SMALL
GASTEIGER

@<TRIPOS>ATOM
      1 C          21.4529  -26.0359   13.8873 C.2     1  UNL1        0.0625
      2 N          22.0034  -26.2814   15.1370 N.2     1  UNL1       -0.3021
      3 H          21.7111  -25.7548   15.9157 H       1  UNL1        0.1864
      4 C          21.8706  -26.7886   12.7741 C.2     1  UNL1        0.0361
      5 C          21.5335  -28.1089   12.6769 C.2     1  UNL1        0.0832
      6 N          21.9369  -29.0344   11.7449 N.pl3   1  UNL1       -0.2815
      7 C          21.4774  -30.3381   11.8211 C.ar    1  UNL1        0.0580
      8 C          21.7863  -31.4041   10.9589 C.ar    1  UNL1        0.0153
      9 C          21.2508  -32.6539   11.1611 C.ar    1  UNL1        0.0013
     10 C          20.3875  -32.9032   12.2141 C.ar    1  UNL1        0.0006
     11 C          20.0693  -31.8735   13.0827 C.ar    1  UNL1        0.0078
     12 C          20.6048  -30.6236   12.8808 C.ar    1  UNL1        0.0442
     13 S          20.4577  -29.0695   13.7290 S.3     1  UNL1       -0.0708
     14 C          22.8533  -28.6420   10.6713 C.3     1  UNL1        0.0979
     15 C          24.2788  -28.5621   11.2214 C.3     1  UNL1        0.0500
     16 C          25.2554  -29.1349   10.1923 C.3     1  UNL1        0.1852
     17 S          26.8886  -28.3800   10.4231 S.O2    1  UNL1        0.1087
     18 O          26.9626  -27.7533   11.6963 O.2     1  UNL1       -0.1451
     19 O          27.9063  -29.2752    9.9960 O.2     1  UNL1       -0.1451
     20 O          26.9347  -27.2339    9.4227 O.3     1  UNL1       -0.1483
     21 N          26.1069  -27.4470    8.2353 N.4     1  UNL1       -0.1882
     22 H          26.1886  -26.6414    7.6149 H       1  UNL1        0.1523
     23 H          25.1331  -27.5627    8.5160 H       1  UNL1        0.1523
     24 C          20.4933  -25.0511   13.7356 C.3     1  UNL1        0.1490
     25 C          20.4232  -19.8296   16.8969 C.ar    1  UNL1        0.0061
     26 C          21.4080  -19.2575   16.1055 C.ar    1  UNL1        0.0009
     27 C          21.9457  -19.9867   15.0590 C.ar    1  UNL1        0.0126
     28 C          21.4980  -21.2609   14.8203 C.ar    1  UNL1        0.0980
     29 C          20.4959  -21.8770   15.6055 C.ar    1  UNL1        0.2324
     30 C          19.9694  -21.1027   16.6668 C.ar    1  UNL1        0.0698
     31 N          20.1561  -23.1311   15.2455 N.ar    1  UNL1       -0.1668
     32 C          20.7322  -23.7541   14.2270 C.ar    1  UNL1        0.2399
     33 S          21.8844  -22.5241   13.6320 S.2     1  UNL1       -0.0175
     34 C          19.1195  -23.8305   16.0087 C.3     1  UNL1        0.3239
     35 C          19.5667  -23.9727   17.4649 C.3     1  UNL1        0.1083
     36 C          19.7603  -25.4537   17.7966 C.3     1  UNL1        0.1330
     37 S          21.2533  -25.6569   18.8068 S.3     1  UNL1       -0.1068
     38 O          20.9128  -25.6695   20.1864 O.2     1  UNL1       -0.3714
     39 O          22.0827  -26.6709   18.2561 O.2     1  UNL1       -0.3714
     40 O          22.0362  -24.3664   18.6118 O.co2   1  UNL1       -0.2908
@<TRIPOS>UNITY_ATOM_ATTR
31 1
charge 1
40 1
charge -1
@<TRIPOS>BOND
     1    25    30   ar
     2    25    26   ar
     3    26    27   ar
     4    27    28   ar
     5    28    33   ar
     6    28    29   ar
     7    29    30   ar
     8    29    31   ar
     9    31    32   ar
    10    31    34    1
    11    32    33   ar
    12    32    24    1
    13    24     1    1
    14     1     4    1
    15     1     2    2
    16     4     5    2
    17     5    13    1
    18     5     6    1
    19     6     7    1
    20     6    14    1
    21     7    12   ar
    22     7     8   ar
    23     8     9   ar
    24     9    10   ar
    25    10    11   ar
    26    11    12   ar
    27    12    13    1
    28    14    15    1
    29    15    16    1
    30    16    17    1
    31    17    18    2
    32    17    19    2
    33    17    20    1
    34    20    21    1
    35    34    35    1
    36    35    36    1
    37    36    37    1
    38    37    38    2
    39    37    39    2
    40    37    40    1
    41    21    22    1
    42    21    23    1
    43     2     3    1
#	Name:			ZINC04484376
#	Creating user name:	trannguyen
#	Creation time:		Wed Dec  7 14:36:19 2022


#	Modifying user name:	trannguyen
#	Modification time:	Wed Dec  7 14:36:19 2022

@<TRIPOS>MOLECULE
ZINC04484376
 17 18 0 0 0
SMALL
GASTEIGER

@<TRIPOS>ATOM
      1 C          21.6118  -20.1945   13.2673 C.2     1  UNL1        0.0039
      2 N          21.6601  -19.0061   12.6731 N.2     1  UNL1       -0.2202
      3 N          21.6516  -17.9909   13.4971 N.pl3   1  UNL1       -0.2852
      4 C          21.0220  -18.4767   14.7272 C.3     1  UNL1        0.0222
      5 C          21.7243  -19.8983   14.6706 C.2     1  UNL1       -0.1476
      6 C          21.4758  -20.3784   16.0041 C.2     1  UNL1        0.0756
      7 O          21.2298  -21.5144   16.3487 O.2     1  UNL1       -0.3133
      8 N          21.5734  -19.2618   16.7995 N.am    1  UNL1       -0.2835
      9 C          21.5976  -18.1087   16.0732 C.2     1  UNL1        0.2125
     10 O          22.0054  -17.0248   16.4318 O.2     1  UNL1       -0.2760
     11 H          21.9975  -17.0852   13.3257 H       1  UNL1        0.1659
     12 H          21.6205  -19.2916   17.7825 H       1  UNL1        0.1549
     13 C          21.4753  -21.5058   12.6370 C.2     1  UNL1        0.3238
     14 O          22.4638  -22.1775   12.4103 O.2     1  UNL1       -0.2466
     15 O          20.2529  -21.9714   12.3065 O.3     1  UNL1       -0.4465
     16 C          18.0188  -22.7409   12.8135 C.3     1  UNL1        0.0513
     17 C          19.3485  -22.2389   13.3801 C.3     1  UNL1        0.2088
@<TRIPOS>UNITY_ATOM_ATTR
5 1
charge -1
@<TRIPOS>BOND
     1    16    17    1
     2    17    15    1
     3    15    13    1
     4    13    14    2
     5    13     1    1
     6     1     5    1
     7     1     2    2
     8     2     3    1
     9     3     4    1
    10     4     9    1
    11     4     5    1
    12     5     6    1
    13     6     7    2
    14     6     8   am
    15     8     9   am
    16     9    10    2
    17     3    11    1
    18     8    12    1
#	Name:			ZINC04527622
#	Creating user name:	trannguyen
#	Creation time:		Wed Dec  7 14:36:20 2022


#	Modifying user name:	trannguyen
#	Modification time:	Wed Dec  7 14:36:20 2022

@<TRIPOS>MOLECULE
ZINC04527622
 46 49 0 0 0
SMALL
GASTEIGER

@<TRIPOS>ATOM
      1 C          18.3211  -26.2792   14.2464 C.3     1  UNL1        0.0101
      2 C          17.6020  -24.9467   14.0269 C.3     1  UNL1        0.0868
      3 N          15.5958  -26.3491   14.3830 N.am    1  UNL1       -0.2058
      4 C          16.1161  -25.1849   13.9469 C.2     1  UNL1        0.2411
      5 O          15.3882  -24.3286   13.4899 O.2     1  UNL1       -0.2734
      6 H          16.1750  -27.0135   14.8216 H       1  UNL1        0.1773
      7 C          13.7643  -27.8005   14.4557 C.2     1  UNL1        0.1206
      8 N          14.2307  -26.6140   14.2123 N.2     1  UNL1       -0.1775
      9 C          11.3892  -27.9611   15.1949 C.ar    1  UNL1        0.1502
     10 C          10.0609  -28.2506   14.9281 C.ar    1  UNL1        0.0377
     11 C           9.6844  -28.6804   13.6697 C.ar    1  UNL1        0.0031
     12 C          10.6287  -28.8246   12.6674 C.ar    1  UNL1        0.0003
     13 C          11.9544  -28.5361   12.9144 C.ar    1  UNL1        0.0046
     14 C          12.3486  -28.1060   14.1834 C.ar    1  UNL1        0.0553
     15 O          11.7602  -27.5391   16.4314 O.3     1  UNL1       -0.4210
     16 C          11.5735  -28.3982   17.4523 C.2     1  UNL1        0.3457
     17 O          12.0572  -29.5115   17.4056 O.2     1  UNL1       -0.2445
     18 C           9.2935  -27.2140   20.8335 C.ar    1  UNL1        0.0000
     19 C           9.0686  -28.4478   20.2490 C.ar    1  UNL1        0.0002
     20 C           9.8056  -28.8389   19.1506 C.ar    1  UNL1        0.0065
     21 C          10.7805  -27.9863   18.6284 C.ar    1  UNL1        0.0760
     22 C          11.0062  -26.7449   19.2267 C.ar    1  UNL1        0.0065
     23 C          10.2576  -26.3640   20.3210 C.ar    1  UNL1        0.0002
     24 C          19.3634  -26.4839   13.1453 C.3     1  UNL1        0.0101
     25 C          20.7607  -26.5259   13.7671 C.3     1  UNL1        0.0868
     26 C          21.1721  -25.1342   14.1731 C.2     1  UNL1        0.2411
     27 O          21.5976  -24.9292   15.2905 O.2     1  UNL1       -0.2734
     28 N          21.0673  -24.1173   13.2947 N.am    1  UNL1       -0.2058
     29 H          20.6545  -24.2684   12.4138 H       1  UNL1        0.1773
     30 N          21.5458  -22.8453   13.6353 N.2     1  UNL1       -0.1775
     31 C          20.7130  -21.9042   13.9599 C.2     1  UNL1        0.1206
     32 C          21.2056  -20.5371   14.2060 C.ar    1  UNL1        0.0553
     33 C          21.2220  -19.5996   13.1708 C.ar    1  UNL1        0.0046
     34 C          21.6801  -18.3209   13.4087 C.ar    1  UNL1        0.0003
     35 C          22.1330  -17.9645   14.6677 C.ar    1  UNL1        0.0031
     36 C          22.1268  -18.8844   15.6990 C.ar    1  UNL1        0.0377
     37 C          21.6655  -20.1721   15.4787 C.ar    1  UNL1        0.1502
     38 O          21.6584  -21.0766   16.4917 O.3     1  UNL1       -0.4210
     39 C          20.4786  -21.3024   17.1019 C.2     1  UNL1        0.3457
     40 O          19.6944  -20.3890   17.2648 O.2     1  UNL1       -0.2445
     41 C          20.1386  -22.6605   17.5728 C.ar    1  UNL1        0.0760
     42 C          21.0004  -23.3394   18.4367 C.ar    1  UNL1        0.0065
     43 C          20.6737  -24.6051   18.8776 C.ar    1  UNL1        0.0002
     44 C          19.5011  -25.2068   18.4559 C.ar    1  UNL1        0.0000
     45 C          18.6455  -24.5420   17.5955 C.ar    1  UNL1        0.0002
     46 C          18.9568  -23.2736   17.1516 C.ar    1  UNL1        0.0065
@<TRIPOS>BOND
     1    18    23   ar
     2    18    19   ar
     3    19    20   ar
     4    20    21   ar
     5    21    22   ar
     6    21    16    1
     7    22    23   ar
     8    16    17    2
     9    16    15    1
    10    15     9    1
    11     9    14   ar
    12     9    10   ar
    13    10    11   ar
    14    11    12   ar
    15    12    13   ar
    16    13    14   ar
    17    14     7    1
    18     7     8    2
    19     8     3    1
    20     3     4   am
    21     4     5    2
    22     4     2    1
    23     2     1    1
    24     1    24    1
    25    24    25    1
    26    25    26    1
    27    26    27    2
    28    26    28   am
    29    28    30    1
    30    30    31    2
    31    31    32    1
    32    32    37   ar
    33    32    33   ar
    34    33    34   ar
    35    34    35   ar
    36    35    36   ar
    37    36    37   ar
    38    37    38    1
    39    38    39    1
    40    39    40    2
    41    39    41    1
    42    41    46   ar
    43    41    42   ar
    44    42    43   ar
    45    43    44   ar
    46    44    45   ar
    47    45    46   ar
    48     3     6    1
    49    28    29    1
#	Name:			ZINC04664468
#	Creating user name:	trannguyen
#	Creation time:		Wed Dec  7 14:36:19 2022


#	Modifying user name:	trannguyen
#	Modification time:	Wed Dec  7 14:36:19 2022

@<TRIPOS>MOLECULE
ZINC04664468
 32 33 0 0 0
SMALL
GASTEIGER

@<TRIPOS>ATOM
      1 C          15.8977  -26.6797   16.9058 C.2     1  UNL1        0.1207
      2 N          16.2712  -25.5598   17.4452 N.2     1  UNL1       -0.1774
      3 C          13.6723  -26.4904   15.8018 C.ar    1  UNL1        0.1737
      4 C          14.4654  -27.0185   16.8278 C.ar    1  UNL1        0.0577
      5 C          13.8924  -27.8687   17.7773 C.ar    1  UNL1        0.0048
      6 C          12.5534  -28.1884   17.6974 C.ar    1  UNL1        0.0034
      7 C          11.7684  -27.6616   16.6864 C.ar    1  UNL1        0.0400
      8 C          12.3232  -26.8168   15.7376 C.ar    1  UNL1        0.1724
      9 O          11.5469  -26.3071   14.7441 O.3     1  UNL1       -0.4684
     10 C          10.9040  -27.2441   13.8776 C.3     1  UNL1        0.2526
     11 O          14.2196  -25.6629   14.8731 O.3     1  UNL1       -0.4724
     12 C          14.8743  -26.2778   13.7617 C.3     1  UNL1        0.2056
     13 C          15.8449  -25.2804   13.1258 C.3     1  UNL1        0.0473
     14 C          16.2079  -24.2004   14.1469 C.3     1  UNL1        0.0038
     15 C          17.8775  -22.7419   12.9947 C.3     1  UNL1        0.0000
     16 C          17.6944  -23.8602   14.0227 C.3     1  UNL1        0.0001
     17 N          17.6220  -25.1884   17.4245 N.am    1  UNL1       -0.2044
     18 C          18.0504  -24.1622   18.1858 C.2     1  UNL1        0.2612
     19 O          17.2543  -23.5083   18.8263 O.2     1  UNL1       -0.2715
     20 H          18.2582  -25.6771   16.8538 H       1  UNL1        0.1773
     21 C          19.5186  -23.8268   18.2413 C.3     1  UNL1        0.1776
     22 N          19.8571  -22.9310   17.1326 N.am    1  UNL1       -0.2931
     23 C          20.4733  -21.7577   17.3783 C.2     1  UNL1        0.2462
     24 O          20.7482  -21.4430   18.5197 O.2     1  UNL1       -0.2701
     25 H          19.6344  -23.1860   16.2082 H       1  UNL1        0.1502
     26 C          20.8149  -20.8537   16.2594 C.ar    1  UNL1        0.0533
     27 C          21.1392  -19.5196   16.5102 C.ar    1  UNL1        0.0042
     28 C          21.4612  -18.6824   15.4620 C.ar    1  UNL1       -0.0041
     29 C          21.4531  -19.1601   14.1635 C.ar    1  UNL1       -0.0218
     30 C          21.1278  -20.4803   13.9077 C.ar    1  UNL1       -0.0041
     31 C          20.8086  -21.3293   14.9472 C.ar    1  UNL1        0.0042
     32 C          21.8006  -18.2385   13.0229 C.3     1  UNL1        0.0310
@<TRIPOS>BOND
     1    15    16    1
     2    16    14    1
     3    14    13    1
     4    13    12    1
     5    12    11    1
     6    11     3    1
     7     3     8   ar
     8     3     4   ar
     9     4     5   ar
    10     4     1    1
    11     5     6   ar
    12     6     7   ar
    13     7     8   ar
    14     8     9    1
    15     9    10    1
    16     1     2    2
    17     2    17    1
    18    17    18   am
    19    18    19    2
    20    18    21    1
    21    21    22    1
    22    22    23   am
    23    23    24    2
    24    23    26    1
    25    26    31   ar
    26    26    27   ar
    27    27    28   ar
    28    28    29   ar
    29    29    30   ar
    30    29    32    1
    31    30    31   ar
    32    17    20    1
    33    22    25    1
#	Name:			ZINC04691868
#	Creating user name:	trannguyen
#	Creation time:		Wed Dec  7 14:36:19 2022


#	Modifying user name:	trannguyen
#	Modification time:	Wed Dec  7 14:36:19 2022

@<TRIPOS>MOLECULE
ZINC04691868
 48 52 0 0 0
SMALL
GASTEIGER

@<TRIPOS>ATOM
      1 C          24.8235  -22.9492   11.9392 C.3     1  UNL1        0.0323
      2 C          23.8924  -23.9321   12.6010 C.ar    1  UNL1       -0.0088
      3 C          22.9163  -23.6248   13.5696 C.ar    1  UNL1        0.0538
      4 C          22.6710  -22.3499   14.0560 C.2     1  UNL1        0.0358
      5 C          21.7026  -22.0638   15.0189 C.2     1  UNL1        0.0852
      6 N          20.8763  -22.9112   15.6268 N.2     1  UNL1       -0.2455
      7 C          20.0928  -22.2670   16.4912 C.2     1  UNL1        0.0789
      8 C          19.1064  -22.8205   17.3115 C.2     1  UNL1        0.0358
      9 C          18.7773  -24.1620   17.3474 C.ar    1  UNL1        0.0606
     10 C          17.7706  -24.7142   18.1894 C.ar    1  UNL1        0.0477
     11 C          17.7293  -26.0794   17.9428 C.ar    1  UNL1       -0.0021
     12 C          18.6953  -26.3647   16.9654 C.ar    1  UNL1        0.0542
     13 N          19.3216  -25.1887   16.6187 N.ar    1  UNL1       -0.3532
     14 C          18.9393  -27.6358   16.4655 C.2     1  UNL1        0.0354
     15 C          19.9019  -27.9201   15.4956 C.2     1  UNL1        0.0785
     16 N          20.7318  -27.0637   14.8984 N.2     1  UNL1       -0.2459
     17 C          21.5119  -27.7073   14.0302 C.2     1  UNL1        0.0785
     18 C          22.5089  -27.1654   13.2160 C.2     1  UNL1        0.0354
     19 C          22.8415  -25.8213   13.1877 C.ar    1  UNL1        0.0538
     20 C          23.8474  -25.2700   12.3685 C.ar    1  UNL1       -0.0086
     21 N          22.2847  -24.7963   13.9191 N.ar    1  UNL1       -0.3535
     22 C          21.1550  -29.1334   14.0564 C.2     1  UNL1       -0.0064
     23 C          20.1612  -29.2646   14.9610 C.2     1  UNL1       -0.0067
     24 C          19.4567  -30.5396   15.3474 C.3     1  UNL1        0.0323
     25 C          16.8123  -27.0756   18.6046 C.3     1  UNL1        0.0327
     26 C          20.4032  -20.8797   16.4729 C.2     1  UNL1        0.0001
     27 C          21.4189  -20.7105   15.5521 C.2     1  UNL1        0.0499
     28 C          19.7495  -19.8016   17.2983 C.3     1  UNL1        0.0327
     29 H          20.0433  -25.0993   15.9551 H       1  UNL1        0.1659
     30 H          21.5595  -24.8861   14.5788 H       1  UNL1        0.1659
     31 C          16.9323  -23.9765   19.1422 C.2     1  UNL1        0.1746
     32 O          16.1435  -23.1472   18.7404 O.2     1  UNL1       -0.2913
     33 C          17.0516  -24.2496   20.6194 C.3     1  UNL1        0.0773
     34 C          22.0737  -19.4562   15.1769 C.2     1  UNL1        0.1747
     35 O          22.8850  -18.9484   15.9230 O.2     1  UNL1       -0.2913
     36 C          21.7404  -18.7953   13.8642 C.3     1  UNL1        0.0773
     37 C          24.7199  -26.0312   11.4038 C.3     1  UNL1        0.0392
     38 C          25.8288  -26.7486   12.1760 C.3     1  UNL1        0.1143
     39 C          26.5132  -27.7384   11.2689 C.2     1  UNL1        0.3174
     40 O          26.7126  -27.4587   10.1105 O.2     1  UNL1       -0.2501
     41 O          26.9012  -28.9309   11.7478 O.3     1  UNL1       -0.4444
     42 C          26.8820  -30.0504   10.8234 C.3     1  UNL1        0.2556
     43 C          21.7762  -30.2331   13.2342 C.3     1  UNL1        0.0393
     44 C          21.3318  -30.0935   11.7769 C.3     1  UNL1        0.1143
     45 C          22.5425  -29.9170   10.8972 C.2     1  UNL1        0.3174
     46 O          23.5143  -30.6164   11.0595 O.2     1  UNL1       -0.2501
     47 O          22.5414  -28.9828    9.9333 O.3     1  UNL1       -0.4444
     48 C          23.6996  -28.9365    9.0588 C.3     1  UNL1        0.2556
@<TRIPOS>BOND
     1     1     2    1
     2     2    20   ar
     3     2     3   ar
     4     3    21   ar
     5     3     4    2
     6     4     5    1
     7     5    27    1
     8     5     6    2
     9     6     7    1
    10     7     8    2
    11     7    26    1
    12     8     9    1
    13     9    13   ar
    14     9    10   ar
    15    10    11   ar
    16    10    31    1
    17    11    12   ar
    18    11    25    1
    19    12    13   ar
    20    12    14    1
    21    14    15    2
    22    15    23    1
    23    15    16    1
    24    16    17    2
    25    17    18    1
    26    17    22    1
    27    18    19    2
    28    19    20   ar
    29    19    21   ar
    30    20    37    1
    31    37    38    1
    32    38    39    1
    33    39    40    2
    34    39    41    1
    35    41    42    1
    36    22    23    2
    37    22    43    1
    38    23    24    1
    39    43    44    1
    40    44    45    1
    41    45    46    2
    42    45    47    1
    43    47    48    1
    44    31    32    2
    45    31    33    1
    46    26    27    2
    47    26    28    1
    48    27    34    1
    49    34    35    2
    50    34    36    1
    51    13    29    1
    52    21    30    1
#	Name:			ZINC04768957
#	Creating user name:	trannguyen
#	Creation time:		Wed Dec  7 14:36:19 2022


#	Modifying user name:	trannguyen
#	Modification time:	Wed Dec  7 14:36:19 2022

@<TRIPOS>MOLECULE
ZINC04768957
 47 52 0 0 0
SMALL
GASTEIGER

@<TRIPOS>ATOM
      1 C          20.9789  -23.3749   17.4765 C.3     1  UNL1        0.2045
      2 C          20.1404  -24.0471   16.3623 C.3     1  UNL1        0.2439
      3 C          20.1370  -25.5424   16.7510 C.3     1  UNL1        0.2604
      4 C          20.9733  -25.5982   18.0487 C.3     1  UNL1        0.2522
      5 O          20.8786  -24.2692   18.6061 O.3     1  UNL1       -0.3274
      6 N          20.4097  -26.5818   18.9767 N.ar    1  UNL1       -0.2699
      7 C          20.8960  -27.8328   19.2189 C.ar    1  UNL1        0.1816
      8 N          20.1456  -28.4286   20.1011 N.ar    1  UNL1       -0.2202
      9 C          19.1449  -27.5952   20.4683 C.ar    1  UNL1        0.1395
     10 C          19.3088  -26.4116   19.7589 C.ar    1  UNL1        0.1464
     11 N          18.4146  -25.3902   19.9586 N.ar    1  UNL1       -0.3123
     12 C          17.3875  -25.5337   20.8382 C.ar    1  UNL1        0.1929
     13 N          17.1989  -26.6356   21.5307 N.ar    1  UNL1       -0.2068
     14 C          18.0162  -27.6929   21.3984 C.ar    1  UNL1        0.1400
     15 S          17.7560  -29.1183   22.3102 S.2     1  UNL1       -0.0283
     16 N          16.5159  -24.4910   21.0091 N.pl3   1  UNL1       -0.3289
     17 H          18.5174  -24.5469   19.4613 H       1  UNL1        0.1700
     18 H          16.6398  -23.6574   20.5000 H       1  UNL1        0.1451
     19 H          15.7656  -24.5750   21.6409 H       1  UNL1        0.1451
     20 C          20.3964  -22.0046   17.8287 C.3     1  UNL1        0.2420
     21 O          21.2880  -20.9626   17.3515 O.3     1  UNL1       -0.4426
     22 C          20.7229  -19.9175   16.7166 C.2     1  UNL1        0.3413
     23 O          19.9669  -19.1794   17.3158 O.2     1  UNL1       -0.2449
     24 C          21.5854  -19.2046   12.6200 C.ar    1  UNL1        0.0000
     25 C          21.8156  -18.2111   13.5553 C.ar    1  UNL1        0.0002
     26 C          21.5376  -18.4360   14.8876 C.ar    1  UNL1        0.0064
     27 C          21.0224  -19.6693   15.2914 C.ar    1  UNL1        0.0756
     28 C          20.7972  -20.6690   14.3431 C.ar    1  UNL1        0.0064
     29 C          21.0754  -20.4291   13.0134 C.ar    1  UNL1        0.0002
     30 O          18.7817  -26.0005   16.9991 O.3     1  UNL1       -0.4406
     31 C          18.1747  -26.6803   16.0070 C.2     1  UNL1        0.3413
     32 O          18.7404  -27.6153   15.4768 O.2     1  UNL1       -0.2449
     33 C          16.8208  -26.2886   15.5641 C.ar    1  UNL1        0.0756
     34 C          16.3525  -24.9948   15.8012 C.ar    1  UNL1        0.0064
     35 C          15.0896  -24.6338   15.3794 C.ar    1  UNL1        0.0002
     36 C          14.2856  -25.5522   14.7277 C.ar    1  UNL1        0.0000
     37 C          14.7413  -26.8377   14.4948 C.ar    1  UNL1        0.0002
     38 C          16.0019  -27.2122   14.9115 C.ar    1  UNL1        0.0064
     39 O          20.7684  -23.8596   15.0666 O.3     1  UNL1       -0.4425
     40 C          20.3513  -24.6566   14.0639 C.2     1  UNL1        0.3413
     41 O          21.0182  -25.6167   13.7336 O.2     1  UNL1       -0.2449
     42 C          19.0829  -24.3630   13.3657 C.ar    1  UNL1        0.0756
     43 C          18.5165  -25.3118   12.5121 C.ar    1  UNL1        0.0064
     44 C          17.3292  -25.0331   11.8673 C.ar    1  UNL1        0.0002
     45 C          16.7055  -23.8125   12.0564 C.ar    1  UNL1        0.0000
     46 C          17.2643  -22.8657   12.8964 C.ar    1  UNL1        0.0002
     47 C          18.4482  -23.1334   13.5519 C.ar    1  UNL1        0.0064
@<TRIPOS>BOND
     1    24    29   ar
     2    24    25   ar
     3    25    26   ar
     4    26    27   ar
     5    27    28   ar
     6    27    22    1
     7    28    29   ar
     8    22    23    2
     9    22    21    1
    10    21    20    1
    11    20     1    1
    12     1     5    1
    13     1     2    1
    14     2     3    1
    15     2    39    1
    16     3     4    1
    17     3    30    1
    18     4     5    1
    19     4     6    1
    20     6    10   ar
    21     6     7   ar
    22     7     8   ar
    23     8     9   ar
    24     9    14   ar
    25     9    10   ar
    26    10    11   ar
    27    11    12   ar
    28    12    13   ar
    29    12    16    1
    30    13    14   ar
    31    14    15    2
    32    30    31    1
    33    31    32    2
    34    31    33    1
    35    33    38   ar
    36    33    34   ar
    37    34    35   ar
    38    35    36   ar
    39    36    37   ar
    40    37    38   ar
    41    39    40    1
    42    40    41    2
    43    40    42    1
    44    42    47   ar
    45    42    43   ar
    46    43    44   ar
    47    44    45   ar
    48    45    46   ar
    49    46    47   ar
    50    11    17    1
    51    16    18    1
    52    16    19    1
#	Name:			ZINC04787370
#	Creating user name:	trannguyen
#	Creation time:		Wed Dec  7 14:36:20 2022


#	Modifying user name:	trannguyen
#	Modification time:	Wed Dec  7 14:36:20 2022

@<TRIPOS>MOLECULE
ZINC04787370
 39 42 0 0 0
SMALL
GASTEIGER

@<TRIPOS>ATOM
      1 C          19.6391  -26.9483   17.0968 C.2     1  UNL1        0.2266
      2 O          19.7215  -27.5841   16.0673 O.2     1  UNL1       -0.2748
      3 N          18.4434  -26.7921   17.6987 N.am    1  UNL1       -0.2839
      4 H          18.3873  -26.3432   18.5731 H       1  UNL1        0.1549
      5 C          17.2812  -27.2680   17.0803 C.ar    1  UNL1        0.0504
      6 C          16.9841  -28.6344   17.1201 C.ar    1  UNL1        0.0162
      7 C          15.8598  -29.1236   16.5320 C.ar    1  UNL1        0.0204
      8 C          14.9813  -28.2538   15.8628 C.ar    1  UNL1        0.0825
      9 C          15.2791  -26.8700   15.8143 C.ar    1  UNL1        0.0151
     10 C          16.4424  -26.3875   16.4327 C.ar    1  UNL1        0.0159
     11 C          14.3957  -26.0006   15.1421 C.ar    1  UNL1       -0.0176
     12 C          13.2829  -26.5319   14.5626 C.ar    1  UNL1        0.0301
     13 C          13.0434  -27.9107   14.6453 C.ar    1  UNL1        0.1315
     14 C          14.6753  -24.5216   15.0664 C.3     1  UNL1        0.0312
     15 N          13.8563  -28.7930   15.2778 N.ar    1  UNL1       -0.2307
     16 N          11.9059  -28.4376   14.0502 N.pl3   1  UNL1       -0.2881
     17 C          10.9384  -27.3773   13.7323 C.3     1  UNL1        0.1242
     18 C           9.7283  -27.9935   13.0253 C.3     1  UNL1        0.1636
     19 O           9.1632  -29.0103   13.8571 O.3     1  UNL1       -0.3501
     20 C          10.0780  -30.0593   14.1861 C.3     1  UNL1        0.1636
     21 C          11.2916  -29.4641   14.9048 C.3     1  UNL1        0.1242
     22 C          20.8739  -26.3327   17.7030 C.3     1  UNL1        0.0949
     23 C          20.4732  -25.4340   18.8746 C.3     1  UNL1        0.0946
     24 N          20.1671  -23.0328   18.3655 N.am    1  UNL1       -0.3043
     25 C          21.0112  -24.0445   18.6489 C.2     1  UNL1        0.2230
     26 O          22.2038  -23.8367   18.7224 O.2     1  UNL1       -0.2751
     27 H          19.1989  -23.2015   18.3058 H       1  UNL1        0.1494
     28 C          20.6901  -21.6821   18.1461 C.3     1  UNL1        0.0911
     29 C          20.1792  -21.1487   16.8062 C.3     1  UNL1        0.0426
     30 C          20.9519  -21.8130   15.6649 C.3     1  UNL1        0.0925
     31 N          20.2069  -21.6546   14.4135 N.pl3   1  UNL1       -0.3074
     32 C          19.3564  -22.6715   13.9735 C.ar    1  UNL1        0.0478
     33 C          18.3768  -22.3987   13.0272 C.ar    1  UNL1        0.0145
     34 C          17.5405  -23.4075   12.5909 C.ar    1  UNL1        0.0013
     35 C          17.6706  -24.6855   13.1028 C.ar    1  UNL1        0.0001
     36 C          18.6413  -24.9592   14.0489 C.ar    1  UNL1        0.0013
     37 C          19.4843  -23.9563   14.4857 C.ar    1  UNL1        0.0145
     38 C          21.6379  -20.5078   12.7951 C.3     1  UNL1        0.0232
     39 C          20.3539  -20.4296   13.6236 C.3     1  UNL1        0.0908
@<TRIPOS>BOND
     1    38    39    1
     2    39    31    1
     3    31    30    1
     4    31    32    1
     5    30    29    1
     6    29    28    1
     7    28    24    1
     8    24    25   am
     9    25    26    2
    10    25    23    1
    11    23    22    1
    12    22     1    1
    13     1     2    2
    14     1     3   am
    15     3     5    1
    16     5    10   ar
    17     5     6   ar
    18     6     7   ar
    19     7     8   ar
    20     8     9   ar
    21     8    15   ar
    22     9    10   ar
    23     9    11   ar
    24    11    12   ar
    25    11    14    1
    26    12    13   ar
    27    13    16    1
    28    13    15   ar
    29    16    21    1
    30    16    17    1
    31    17    18    1
    32    18    19    1
    33    19    20    1
    34    20    21    1
    35    32    37   ar
    36    32    33   ar
    37    33    34   ar
    38    34    35   ar
    39    35    36   ar
    40    36    37   ar
    41    24    27    1
    42     3     4    1
#	Name:			ZINC04791962
#	Creating user name:	trannguyen
#	Creation time:		Wed Dec  7 14:36:19 2022


#	Modifying user name:	trannguyen
#	Modification time:	Wed Dec  7 14:36:19 2022

@<TRIPOS>MOLECULE
ZINC04791962
 48 50 0 0 0
SMALL
GASTEIGER

@<TRIPOS>ATOM
      1 C          23.8817  -27.3010   11.3047 C.ar    1  UNL1        0.0845
      2 C          23.4579  -26.4757   12.4416 C.ar    1  UNL1       -0.0027
      3 C          22.2382  -26.9162   12.7959 C.ar    1  UNL1        0.0355
      4 N          21.8755  -27.9386   11.9686 N.ar    1  UNL1       -0.3592
      5 C          22.8463  -28.1797   11.0676 C.ar    1  UNL1        0.0453
      6 C          24.2379  -25.3598   13.0879 C.3     1  UNL1        0.0325
      7 H          21.0243  -28.4305   12.0228 H       1  UNL1        0.1654
      8 C          25.1508  -27.2076   10.5665 C.2     1  UNL1        0.3420
      9 O          26.0045  -28.0600   10.7152 O.2     1  UNL1       -0.2449
     10 O          25.3669  -26.1768    9.7254 O.3     1  UNL1       -0.4454
     11 C          24.8335  -26.6414    7.3952 C.3     1  UNL1        0.0513
     12 C          25.9481  -26.4917    8.4327 C.3     1  UNL1        0.2089
     13 C          21.4048  -26.3680   13.9255 C.3     1  UNL1        0.0868
     14 C          20.5734  -25.2158   13.4231 C.ar    1  UNL1        0.0456
     15 C          20.6592  -23.9058   13.8589 C.ar    1  UNL1        0.0851
     16 C          19.7062  -23.1621   13.1271 C.ar    1  UNL1        0.0074
     17 C          19.0826  -24.0338   12.2833 C.ar    1  UNL1        0.1293
     18 N          19.6284  -25.2852   12.4729 N.ar    1  UNL1       -0.3511
     19 C          19.4310  -21.6860   13.2547 C.3     1  UNL1        0.0330
     20 H          19.3663  -26.1010   11.9880 H       1  UNL1        0.1658
     21 C          21.5710  -23.3847   14.8910 C.2     1  UNL1        0.3420
     22 O          22.4929  -22.6577   14.5766 O.2     1  UNL1       -0.2449
     23 O          21.3834  -23.7136   16.1843 O.3     1  UNL1       -0.4454
     24 C          20.1164  -23.3349   16.7839 C.3     1  UNL1        0.2089
     25 C          20.1101  -21.8290   17.0547 C.3     1  UNL1        0.0513
     26 C          18.0179  -23.6963   11.3330 C.2     1  UNL1        0.3567
     27 O          18.2586  -22.9821   10.3788 O.2     1  UNL1       -0.2433
     28 O          16.7717  -24.1780   11.5176 O.3     1  UNL1       -0.4444
     29 C          16.3355  -24.3695   12.8893 C.3     1  UNL1        0.2089
     30 C          15.6004  -23.1168   13.3701 C.3     1  UNL1        0.0513
     31 C          22.8103  -29.2327    9.9902 C.3     1  UNL1        0.0874
     32 C          23.3644  -30.5251   10.5321 C.ar    1  UNL1        0.0457
     33 C          22.6373  -31.5109   11.1745 C.ar    1  UNL1        0.0851
     34 C          23.5427  -32.5433   11.5079 C.ar    1  UNL1        0.0074
     35 C          24.7739  -32.1506   11.0709 C.ar    1  UNL1        0.1293
     36 N          24.6471  -30.9152   10.4729 N.ar    1  UNL1       -0.3511
     37 C          23.2117  -33.8321   12.2153 C.3     1  UNL1        0.0330
     38 H          25.3814  -30.4004   10.0665 H       1  UNL1        0.1658
     39 C          26.0180  -32.9148   11.2081 C.2     1  UNL1        0.3567
     40 O          26.3419  -33.7092   10.3464 O.2     1  UNL1       -0.2433
     41 O          26.8030  -32.7364   12.2903 O.3     1  UNL1       -0.4444
     42 C          27.9821  -31.9064   12.1195 C.3     1  UNL1        0.2089
     43 C          29.2040  -32.6340   12.6838 C.3     1  UNL1        0.0513
     44 C          21.1915  -31.4910   11.4530 C.2     1  UNL1        0.3420
     45 O          20.4413  -32.2098   10.8225 O.2     1  UNL1       -0.2449
     46 O          20.7003  -30.6757   12.4069 O.3     1  UNL1       -0.4454
     47 C          20.6740  -31.1904   13.7644 C.3     1  UNL1        0.2089
     48 C          21.5206  -30.2911   14.6673 C.3     1  UNL1        0.0513
@<TRIPOS>BOND
     1    11    12    1
     2    12    10    1
     3    10     8    1
     4     8     9    2
     5     8     1    1
     6     1     5   ar
     7     1     2   ar
     8     2     3   ar
     9     2     6    1
    10     3     4   ar
    11     3    13    1
    12     4     5   ar
    13     5    31    1
    14    31    32    1
    15    32    36   ar
    16    32    33   ar
    17    33    34   ar
    18    33    44    1
    19    34    35   ar
    20    34    37    1
    21    35    36   ar
    22    35    39    1
    23    39    40    2
    24    39    41    1
    25    41    42    1
    26    42    43    1
    27    44    45    2
    28    44    46    1
    29    46    47    1
    30    47    48    1
    31    13    14    1
    32    14    18   ar
    33    14    15   ar
    34    15    16   ar
    35    15    21    1
    36    16    17   ar
    37    16    19    1
    38    17    18   ar
    39    17    26    1
    40    26    27    2
    41    26    28    1
    42    28    29    1
    43    29    30    1
    44    21    22    2
    45    21    23    1
    46    23    24    1
    47    24    25    1
    48     4     7    1
    49    36    38    1
    50    18    20    1
#	Name:			ZINC04830822
#	Creating user name:	trannguyen
#	Creation time:		Wed Dec  7 14:36:19 2022


#	Modifying user name:	trannguyen
#	Modification time:	Wed Dec  7 14:36:19 2022

@<TRIPOS>MOLECULE
ZINC04830822
 49 52 0 0 0
SMALL
GASTEIGER

@<TRIPOS>ATOM
      1 S          11.5903  -28.5483   15.9105 S.O2    1  UNL1        0.0274
      2 O          10.6302  -28.0918   14.9675 O.2     1  UNL1       -0.1642
      3 O          12.1043  -29.8729   15.8939 O.2     1  UNL1       -0.1642
      4 C          15.1553  -25.7708   15.5773 C.ar    1  UNL1        0.0814
      5 C          15.2838  -27.0031   16.2220 C.ar    1  UNL1        0.0204
      6 C          14.1946  -27.8437   16.3194 C.ar    1  UNL1        0.0203
      7 C          12.9765  -27.4684   15.7808 C.ar    1  UNL1        0.1104
      8 C          12.8418  -26.2488   15.1411 C.ar    1  UNL1        0.0203
      9 C          13.9227  -25.3985   15.0359 C.ar    1  UNL1        0.0204
     10 C          16.7138  -24.6353   14.2968 C.2     1  UNL1        0.0988
     11 N          16.2334  -24.9345   15.4716 N.2     1  UNL1       -0.2438
     12 C          18.8611  -23.7384   15.1738 C.ar    1  UNL1        0.0028
     13 C          19.9459  -22.8994   15.0614 C.ar    1  UNL1        0.0146
     14 C          20.0552  -22.0423   13.9699 C.ar    1  UNL1        0.0480
     15 C          19.0711  -22.0339   12.9853 C.ar    1  UNL1        0.0146
     16 C          17.9858  -22.8736   13.0875 C.ar    1  UNL1        0.0028
     17 C          17.8721  -23.7369   14.1834 C.ar    1  UNL1        0.0192
     18 N          21.1513  -21.1910   13.8629 N.pl3   1  UNL1       -0.3028
     19 C          22.4590  -21.6135   14.3703 C.3     1  UNL1        0.1227
     20 C          23.0168  -22.7253   13.4793 C.3     1  UNL1        0.1585
     21 O          23.5970  -22.1501   12.3068 O.3     1  UNL1       -0.3802
     22 H          22.9193  -21.6551   11.8203 H       1  UNL1        0.2105
     23 C          20.9971  -19.8726   13.2430 C.3     1  UNL1        0.1227
     24 C          21.4182  -18.7890   14.2376 C.3     1  UNL1        0.1585
     25 O          21.8533  -17.6302   13.5236 O.3     1  UNL1       -0.3802
     26 H          22.6076  -17.8623   12.9596 H       1  UNL1        0.2105
     27 C          10.8853  -28.3017   17.5064 C.ar    1  UNL1        0.1104
     28 C          11.2965  -27.2330   18.2832 C.ar    1  UNL1        0.0203
     29 C          10.7447  -27.0307   19.5311 C.ar    1  UNL1        0.0204
     30 C           9.7769  -27.9139   20.0146 C.ar    1  UNL1        0.0814
     31 C           9.3707  -28.9938   19.2275 C.ar    1  UNL1        0.0204
     32 C           9.9272  -29.1810   17.9793 C.ar    1  UNL1        0.0203
     33 N           9.2286  -27.7220   21.2538 N.2     1  UNL1       -0.2438
     34 C           8.5636  -28.6851   21.8288 C.2     1  UNL1        0.0988
     35 C           7.9747  -28.4791   23.1601 C.ar    1  UNL1        0.0192
     36 C           8.5489  -27.5608   24.0469 C.ar    1  UNL1        0.0028
     37 C           7.9916  -27.3674   25.2901 C.ar    1  UNL1        0.0146
     38 C           6.8650  -28.0913   25.6704 C.ar    1  UNL1        0.0480
     39 C           6.2941  -29.0093   24.7934 C.ar    1  UNL1        0.0146
     40 C           6.8419  -29.2048   23.5463 C.ar    1  UNL1        0.0028
     41 N           6.3081  -27.8969   26.9310 N.pl3   1  UNL1       -0.3028
     42 C           5.1935  -26.9619   27.1032 C.3     1  UNL1        0.1227
     43 C           5.7376  -25.5374   27.2293 C.3     1  UNL1        0.1585
     44 O           5.2363  -24.7391   26.1553 O.3     1  UNL1       -0.3802
     45 H           5.5202  -25.1199   25.3095 H       1  UNL1        0.2105
     46 C           6.8364  -28.6273   28.0859 C.3     1  UNL1        0.1227
     47 C           5.6947  -29.3640   28.7893 C.3     1  UNL1        0.1585
     48 O           5.1772  -30.3770   27.9244 O.3     1  UNL1       -0.3802
     49 H           4.8450  -29.9681   27.1100 H       1  UNL1        0.2105
@<TRIPOS>BOND
     1    12    17   ar
     2    12    13   ar
     3    13    14   ar
     4    14    15   ar
     5    14    18    1
     6    15    16   ar
     7    16    17   ar
     8    17    10    1
     9    10    11    2
    10    11     4    1
    11     4     9   ar
    12     4     5   ar
    13     5     6   ar
    14     6     7   ar
    15     7     8   ar
    16     7     1    1
    17     8     9   ar
    18     1     2    2
    19     1     3    2
    20     1    27    1
    21    27    32   ar
    22    27    28   ar
    23    28    29   ar
    24    29    30   ar
    25    30    31   ar
    26    30    33    1
    27    31    32   ar
    28    33    34    2
    29    34    35    1
    30    35    40   ar
    31    35    36   ar
    32    36    37   ar
    33    37    38   ar
    34    38    39   ar
    35    38    41    1
    36    39    40   ar
    37    41    46    1
    38    41    42    1
    39    46    47    1
    40    47    48    1
    41    42    43    1
    42    43    44    1
    43    18    19    1
    44    18    23    1
    45    19    20    1
    46    20    21    1
    47    23    24    1
    48    24    25    1
    49    48    49    1
    50    44    45    1
    51    21    22    1
    52    25    26    1
#	Name:			ZINC04836833
#	Creating user name:	trannguyen
#	Creation time:		Wed Dec  7 14:36:19 2022


#	Modifying user name:	trannguyen
#	Modification time:	Wed Dec  7 14:36:19 2022

@<TRIPOS>MOLECULE
ZINC04836833
 15 17 0 0 0
SMALL
GASTEIGER

@<TRIPOS>ATOM
      1 C          26.9077  -28.7723    9.8629 C.ar    1  UNL1        0.2224
      2 C          26.0165  -29.7700   10.5072 C.ar    1  UNL1        0.2448
      3 N          26.7471  -30.6542   11.0883 N.ar    1  UNL1       -0.0269
      4 O          28.1075  -30.3137   10.8602 O.2     1  UNL1       -0.2385
      5 N          28.1297  -29.1246   10.0834 N.ar    1  UNL1       -0.0289
      6 N          24.6353  -29.6123   10.3926 N.ar    1  UNL1       -0.1648
      7 C          24.1528  -28.6359    9.5423 C.ar    1  UNL1        0.2230
      8 C          25.0531  -27.7847    8.7352 C.ar    1  UNL1        0.1706
      9 N          24.6292  -27.1627    7.6728 N.2     1  UNL1       -0.2984
     10 O          25.5186  -26.3554    6.9230 O.co2   1  UNL1       -0.7919
     11 N          26.3880  -27.6773    9.1658 N.ar    1  UNL1       -0.3167
     12 N          22.8538  -28.6821    9.6367 N.ar    1  UNL1       -0.1046
     13 N          22.5522  -29.6212   10.4744 N.ar    1  UNL1       -0.0222
     14 N          23.6305  -30.1777   10.9211 N.ar    1  UNL1       -0.0369
     15 H          26.9277  -26.8738    8.9859 H       1  UNL1        0.1690
@<TRIPOS>UNITY_ATOM_ATTR
10 1
charge -1
@<TRIPOS>BOND
     1     1     5   ar
     2     1    11   ar
     3     1     2   ar
     4     2     3   ar
     5     2     6   ar
     6     3     4   ar
     7     4     5   ar
     8     6    14   ar
     9     6     7   ar
    10     7     8   ar
    11     7    12   ar
    12     8     9    2
    13     8    11   ar
    14     9    10    1
    15    12    13   ar
    16    13    14   ar
    17    11    15    1
#	Name:			ZINC04877106
#	Creating user name:	trannguyen
#	Creation time:		Wed Dec  7 14:36:20 2022


#	Modifying user name:	trannguyen
#	Modification time:	Wed Dec  7 14:36:20 2022

@<TRIPOS>MOLECULE
ZINC04877106
 39 41 0 0 0
SMALL
GASTEIGER

@<TRIPOS>ATOM
      1 C          20.6239  -25.9281   13.9615 C.3     1  UNL1        0.1149
      2 C          21.1040  -25.0536   17.4430 C.ar    1  UNL1        0.0842
      3 C          20.8409  -24.6785   16.1086 C.ar    1  UNL1       -0.0024
      4 C          20.8419  -25.8387   15.3600 C.ar    1  UNL1        0.0405
      5 N          21.0980  -26.8946   16.2091 N.ar    1  UNL1       -0.3592
      6 C          21.2558  -26.4303   17.4585 C.ar    1  UNL1        0.0397
      7 C          21.5501  -27.2678   18.6763 C.3     1  UNL1        0.0500
      8 C          20.6043  -23.2803   15.5985 C.3     1  UNL1        0.0325
      9 H          21.1560  -27.8401   15.9410 H       1  UNL1        0.1654
     10 C          21.2000  -24.1503   18.6023 C.2     1  UNL1        0.3420
     11 O          22.2791  -23.9374   19.1190 O.2     1  UNL1       -0.2449
     12 O          20.0911  -23.5598   19.0901 O.3     1  UNL1       -0.4454
     13 C          17.7076  -23.9527   18.7826 C.3     1  UNL1        0.0513
     14 C          18.9912  -24.4305   19.4646 C.3     1  UNL1        0.2089
     15 C          19.4349  -25.4035   13.3944 C.ar    1  UNL1        0.0405
     16 C          18.1663  -25.5070   13.9299 C.ar    1  UNL1       -0.0024
     17 C          17.2931  -24.8442   13.0418 C.ar    1  UNL1        0.0842
     18 C          18.0611  -24.3679   11.9922 C.ar    1  UNL1        0.0397
     19 N          19.3421  -24.7055   12.2087 N.ar    1  UNL1       -0.3592
     20 C          17.5444  -23.5985   10.8039 C.3     1  UNL1        0.0500
     21 C          17.7877  -26.1936   15.2168 C.3     1  UNL1        0.0325
     22 H          20.0966  -24.4890   11.6145 H       1  UNL1        0.1654
     23 C          15.8364  -24.6928   13.1982 C.2     1  UNL1        0.3420
     24 O          15.3647  -23.6083   13.4779 O.2     1  UNL1       -0.2449
     25 O          15.0266  -25.7569   13.0312 O.3     1  UNL1       -0.4454
     26 C          14.3970  -26.2994   14.2218 C.3     1  UNL1        0.2089
     27 C          13.5431  -27.5104   13.8404 C.3     1  UNL1        0.0513
     28 C          21.6255  -26.5618   13.1043 C.2     1  UNL1        0.0659
     29 C          22.9183  -26.0868   12.8709 C.2     1  UNL1        0.0001
     30 C          23.5113  -26.9959   11.9858 C.2     1  UNL1        0.0904
     31 C          22.5430  -27.9896   11.7342 C.2     1  UNL1        0.0869
     32 N          21.4573  -27.7002   12.4075 N.2     1  UNL1       -0.2490
     33 C          22.7270  -29.1872   10.8382 C.2     1  UNL1        0.0208
     34 C          23.5451  -24.8439   13.4482 C.3     1  UNL1        0.0326
     35 C          24.8701  -26.9301   11.4342 C.2     1  UNL1        0.3424
     36 O          25.7333  -27.6766   11.8537 O.2     1  UNL1       -0.2449
     37 O          25.1609  -26.0419   10.4625 O.3     1  UNL1       -0.4454
     38 C          25.7799  -26.5631    9.2567 C.3     1  UNL1        0.2089
     39 C          24.6930  -26.9482    8.2511 C.3     1  UNL1        0.0513
@<TRIPOS>BOND
     1    13    14    1
     2    14    12    1
     3    12    10    1
     4    10    11    2
     5    10     2    1
     6     2     6   ar
     7     2     3   ar
     8     3     4   ar
     9     3     8    1
    10     4     5   ar
    11     4     1    1
    12     5     6   ar
    13     6     7    1
    14     1    15    1
    15     1    28    1
    16    28    29    1
    17    28    32    2
    18    29    30    2
    19    29    34    1
    20    30    31    1
    21    30    35    1
    22    31    33    2
    23    31    32    1
    24    35    36    2
    25    35    37    1
    26    37    38    1
    27    38    39    1
    28    15    19   ar
    29    15    16   ar
    30    16    17   ar
    31    16    21    1
    32    17    18   ar
    33    17    23    1
    34    18    19   ar
    35    18    20    1
    36    23    24    2
    37    23    25    1
    38    25    26    1
    39    26    27    1
    40     5     9    1
    41    19    22    1
#	Name:			ZINC04917380
#	Creating user name:	trannguyen
#	Creation time:		Wed Dec  7 14:36:19 2022


#	Modifying user name:	trannguyen
#	Modification time:	Wed Dec  7 14:36:19 2022

@<TRIPOS>MOLECULE
ZINC04917380
 47 52 0 0 0
SMALL
GASTEIGER

@<TRIPOS>ATOM
      1 C          15.9696  -26.4248   17.0941 C.3     1  UNL1        0.2045
      2 C          16.6294  -26.3608   15.6987 C.3     1  UNL1        0.2439
      3 C          15.6146  -27.0615   14.7677 C.3     1  UNL1        0.2604
      4 C          14.4578  -27.4643   15.7141 C.3     1  UNL1        0.2522
      5 O          14.5556  -26.5506   16.8283 O.3     1  UNL1       -0.3274
      6 N          13.1663  -27.3097   15.0397 N.ar    1  UNL1       -0.2683
      7 C          12.3691  -26.2023   15.0668 C.ar    1  UNL1        0.1817
      8 N          11.2991  -26.4119   14.3570 N.ar    1  UNL1       -0.2174
      9 C          11.3413  -27.6643   13.8408 C.ar    1  UNL1        0.1728
     10 C          12.5362  -28.2514   14.2724 C.ar    1  UNL1        0.1721
     11 N          12.8316  -29.5028   13.9018 N.ar    1  UNL1       -0.1963
     12 C          12.0170  -30.1952   13.1372 C.ar    1  UNL1        0.1950
     13 N          10.8395  -29.6783   12.6853 N.ar    1  UNL1       -0.2934
     14 C          10.4740  -28.4204   13.0179 C.ar    1  UNL1        0.2803
     15 O           9.4226  -27.9493   12.6192 O.2     1  UNL1       -0.2654
     16 N          12.3624  -31.4751   12.7829 N.pl3   1  UNL1       -0.3289
     17 H          10.2524  -30.2240   12.1138 H       1  UNL1        0.1716
     18 H          13.2097  -31.8624   13.1015 H       1  UNL1        0.1451
     19 H          11.7631  -32.0061   12.2102 H       1  UNL1        0.1451
     20 C          16.2523  -25.1405   17.8762 C.3     1  UNL1        0.2420
     21 O          16.4217  -25.4578   19.2829 O.3     1  UNL1       -0.4426
     22 C          17.5250  -24.9787   19.8895 C.2     1  UNL1        0.3413
     23 O          17.4200  -24.1797   20.7983 O.2     1  UNL1       -0.2449
     24 C          21.3704  -26.2623   18.6247 C.ar    1  UNL1        0.0000
     25 C          21.1727  -24.9449   18.9992 C.ar    1  UNL1        0.0002
     26 C          19.9261  -24.5213   19.4107 C.ar    1  UNL1        0.0064
     27 C          18.8627  -25.4252   19.4494 C.ar    1  UNL1        0.0756
     28 C          19.0705  -26.7544   19.0757 C.ar    1  UNL1        0.0064
     29 C          20.3210  -27.1635   18.6611 C.ar    1  UNL1        0.0002
     30 O          15.1422  -26.1431   13.7471 O.3     1  UNL1       -0.4406
     31 C          15.5115  -24.8531   13.8671 C.2     1  UNL1        0.3413
     32 O          14.9232  -24.1221   14.6385 O.2     1  UNL1       -0.2449
     33 C          16.6319  -24.3275   13.0604 C.ar    1  UNL1        0.0756
     34 C          17.2152  -23.1011   13.3852 C.ar    1  UNL1        0.0064
     35 C          18.2649  -22.6190   12.6311 C.ar    1  UNL1        0.0002
     36 C          18.7322  -23.3421   11.5480 C.ar    1  UNL1        0.0000
     37 C          18.1550  -24.5553   11.2170 C.ar    1  UNL1        0.0002
     38 C          17.1085  -25.0520   11.9660 C.ar    1  UNL1        0.0064
     39 O          17.8943  -27.0738   15.7009 O.3     1  UNL1       -0.4425
     40 C          18.7686  -26.7711   14.7218 C.2     1  UNL1        0.3413
     41 O          18.8768  -27.5012   13.7571 O.2     1  UNL1       -0.2449
     42 C          19.5956  -25.5511   14.8212 C.ar    1  UNL1        0.0756
     43 C          19.2973  -24.5777   15.7767 C.ar    1  UNL1        0.0064
     44 C          20.0769  -23.4432   15.8676 C.ar    1  UNL1        0.0002
     45 C          21.1457  -23.2636   15.0073 C.ar    1  UNL1        0.0000
     46 C          21.4434  -24.2217   14.0544 C.ar    1  UNL1        0.0002
     47 C          20.6756  -25.3635   13.9563 C.ar    1  UNL1        0.0064
@<TRIPOS>BOND
     1    24    29   ar
     2    24    25   ar
     3    25    26   ar
     4    26    27   ar
     5    27    28   ar
     6    27    22    1
     7    28    29   ar
     8    22    23    2
     9    22    21    1
    10    21    20    1
    11    20     1    1
    12     1     5    1
    13     1     2    1
    14     2     3    1
    15     2    39    1
    16     3     4    1
    17     3    30    1
    18     4     5    1
    19     4     6    1
    20     6    10   ar
    21     6     7   ar
    22     7     8   ar
    23     8     9   ar
    24     9    14   ar
    25     9    10   ar
    26    10    11   ar
    27    11    12   ar
    28    12    13   ar
    29    12    16    1
    30    13    14   ar
    31    14    15    2
    32    30    31    1
    33    31    32    2
    34    31    33    1
    35    33    38   ar
    36    33    34   ar
    37    34    35   ar
    38    35    36   ar
    39    36    37   ar
    40    37    38   ar
    41    39    40    1
    42    40    41    2
    43    40    42    1
    44    42    47   ar
    45    42    43   ar
    46    43    44   ar
    47    44    45   ar
    48    45    46   ar
    49    46    47   ar
    50    13    17    1
    51    16    18    1
    52    16    19    1
#	Name:			ZINC04974923
#	Creating user name:	trannguyen
#	Creation time:		Wed Dec  7 14:36:19 2022


#	Modifying user name:	trannguyen
#	Modification time:	Wed Dec  7 14:36:19 2022

@<TRIPOS>MOLECULE
ZINC04974923
 21 22 0 0 0
SMALL
GASTEIGER

@<TRIPOS>ATOM
      1 C          21.1891  -20.0005   14.2930 C.ar    1  UNL1        0.2216
      2 C          21.5907  -18.7213   14.5663 C.ar    1  UNL1        0.2112
      3 C          21.4762  -18.2392   15.9566 C.ar    1  UNL1        0.2350
      4 O          21.8173  -17.1085   16.2634 O.2     1  UNL1       -0.2831
      5 C          20.9515  -19.1333   16.9203 C.ar    1  UNL1        0.0808
      6 C          20.5907  -20.3772   16.5369 C.ar    1  UNL1        0.1559
      7 O          20.7049  -20.7876   15.2723 O.2     1  UNL1       -0.4488
      8 O          22.0797  -17.9208   13.5892 O.3     1  UNL1       -0.5007
      9 H          22.1464  -18.2408   12.7111 H       1  UNL1        0.2924
     10 C          20.0371  -21.3279   17.5668 C.3     1  UNL1        0.2021
     11 O          21.1139  -21.9191   18.2970 O.3     1  UNL1       -0.3748
     12 H          21.6909  -22.4040   17.6863 H       1  UNL1        0.2110
     13 C          21.2870  -20.5177   12.9247 C.2     1  UNL1        0.2587
     14 O          21.5541  -19.7669   12.0101 O.2     1  UNL1       -0.2820
     15 C          23.1825  -22.9788   13.2966 C.3     1  UNL1        0.1674
     16 C          21.0548  -24.1157   13.6270 C.3     1  UNL1        0.1060
     17 C          19.5644  -23.7395   13.4842 C.3     1  UNL1        0.0673
     18 C          19.5649  -22.3358   12.8443 C.3     1  UNL1        0.0695
     19 C          21.0556  -21.9821   12.6544 C.3     1  UNL1        0.1216
     20 N          21.7353  -22.8159   13.6430 N.4     1  UNL1        0.2818
     21 H          21.6974  -22.3889   14.5685 H       1  UNL1        0.2072
@<TRIPOS>UNITY_ATOM_ATTR
20 1
charge 1
@<TRIPOS>BOND
     1    15    20    1
     2    16    17    1
     3    16    20    1
     4    17    18    1
     5    18    19    1
     6    19    13    1
     7    19    20    1
     8    13    14    2
     9    13     1    1
    10     1     7   ar
    11     1     2   ar
    12     2     3   ar
    13     2     8    1
    14     3     4    2
    15     3     5   ar
    16     5     6   ar
    17     6     7   ar
    18     6    10    1
    19    10    11    1
    20    11    12    1
    21     8     9    1
    22    20    21    1
#	Name:			ZINC04990461
#	Creating user name:	trannguyen
#	Creation time:		Wed Dec  7 14:36:20 2022


#	Modifying user name:	trannguyen
#	Modification time:	Wed Dec  7 14:36:20 2022

@<TRIPOS>MOLECULE
ZINC04990461
 39 41 0 0 0
SMALL
GASTEIGER

@<TRIPOS>ATOM
      1 C          15.8113  -26.4473   17.3774 C.3     1  UNL1        0.1596
      2 O          16.0073  -27.7570   17.9145 O.3     1  UNL1       -0.3801
      3 H          16.5131  -28.2928   17.2837 H       1  UNL1        0.2105
      4 C          17.1702  -25.7909   17.1253 C.3     1  UNL1        0.1693
      5 O          18.0515  -26.7382   16.5186 O.3     1  UNL1       -0.3794
      6 H          18.1647  -27.4991   17.1095 H       1  UNL1        0.2105
      7 C          17.7640  -25.3205   18.4545 C.3     1  UNL1        0.1835
      8 O          16.7188  -25.1750   19.4181 O.3     1  UNL1       -0.3784
      9 H          16.0760  -24.5210   19.1017 H       1  UNL1        0.2106
     10 C          18.4630  -23.9745   18.2531 C.3     1  UNL1        0.2403
     11 O          18.8243  -23.8213   16.8551 O.3     1  UNL1       -0.4427
     12 C          20.1013  -23.4867   16.5867 C.2     1  UNL1        0.3413
     13 O          20.9386  -24.3544   16.4407 O.2     1  UNL1       -0.2449
     14 C          20.4833  -22.0644   16.4699 C.ar    1  UNL1        0.0757
     15 C          21.3798  -21.6582   15.4795 C.ar    1  UNL1        0.0081
     16 C          21.7277  -20.3276   15.3723 C.ar    1  UNL1        0.0243
     17 C          21.1992  -19.3982   16.2506 C.ar    1  UNL1        0.1429
     18 C          20.3146  -19.7948   17.2379 C.ar    1  UNL1        0.0243
     19 C          19.9536  -21.1212   17.3527 C.ar    1  UNL1        0.0081
     20 N          21.5814  -17.9731   16.1331 N.pl3   1  UNL1        0.0577
     21 O          20.7227  -17.1228   15.9810 O.2     1  UNL1       -0.1261
     22 O          22.7547  -17.6507   16.1886 O.2     1  UNL1       -0.1261
     23 C          15.0405  -26.5466   16.0595 C.3     1  UNL1        0.1246
     24 S          13.2989  -26.9193   16.4043 S.3     1  UNL1       -0.1227
     25 C          12.4084  -26.1907   15.0019 C.3     1  UNL1        0.0846
     26 C          10.9286  -29.3057   12.4810 C.ar    1  UNL1       -0.0000
     27 C          10.0575  -28.3707   13.0082 C.ar    1  UNL1       -0.0003
     28 C          10.5363  -27.3628   13.8242 C.ar    1  UNL1       -0.0034
     29 C          11.8863  -27.2897   14.1127 C.ar    1  UNL1       -0.0113
     30 C          12.7581  -28.2214   13.5809 C.ar    1  UNL1       -0.0034
     31 C          12.2785  -29.2326   12.7696 C.ar    1  UNL1       -0.0003
     32 S          15.1569  -24.9697   15.1707 S.3     1  UNL1       -0.1227
     33 C          15.8703  -25.4223   13.5655 C.3     1  UNL1        0.0846
     34 C          17.1399  -24.6417   13.3418 C.ar    1  UNL1       -0.0113
     35 C          17.0921  -23.2661   13.2146 C.ar    1  UNL1       -0.0034
     36 C          18.2572  -22.5496   13.0148 C.ar    1  UNL1       -0.0003
     37 C          19.4689  -23.2098   12.9313 C.ar    1  UNL1       -0.0000
     38 C          19.5160  -24.5860   13.0528 C.ar    1  UNL1       -0.0003
     39 C          18.3515  -25.3019   13.2584 C.ar    1  UNL1       -0.0034
@<TRIPOS>BOND
     1    26    31   ar
     2    26    27   ar
     3    27    28   ar
     4    28    29   ar
     5    29    30   ar
     6    29    25    1
     7    30    31   ar
     8    25    24    1
     9    24    23    1
    10    23     1    1
    11    23    32    1
    12     1     4    1
    13     1     2    1
    14     4     7    1
    15     4     5    1
    16     7    10    1
    17     7     8    1
    18    10    11    1
    19    11    12    1
    20    12    13    2
    21    12    14    1
    22    14    19   ar
    23    14    15   ar
    24    15    16   ar
    25    16    17   ar
    26    17    18   ar
    27    17    20    1
    28    18    19   ar
    29    20    21    2
    30    20    22    2
    31    32    33    1
    32    33    34    1
    33    34    39   ar
    34    34    35   ar
    35    35    36   ar
    36    36    37   ar
    37    37    38   ar
    38    38    39   ar
    39     8     9    1
    40     5     6    1
    41     2     3    1
#	Name:			ZINC05040294
#	Creating user name:	trannguyen
#	Creation time:		Wed Dec  7 14:36:20 2022


#	Modifying user name:	trannguyen
#	Modification time:	Wed Dec  7 14:36:20 2022

@<TRIPOS>MOLECULE
ZINC05040294
 28 29 0 0 0
SMALL
GASTEIGER

@<TRIPOS>ATOM
      1 C          19.9763  -24.6525   17.5583 C.3     1  UNL1        0.2447
      2 C          20.9802  -24.9866   18.6635 C.3     1  UNL1        0.0575
      3 N          19.6997  -22.7042   16.0596 N.am    1  UNL1       -0.2815
      4 C          20.5340  -23.5563   16.6876 C.2     1  UNL1        0.2664
      5 O          21.7337  -23.4410   16.5517 O.2     1  UNL1       -0.2709
      6 H          18.7256  -22.8300   16.1266 H       1  UNL1        0.1549
      7 C          21.8014  -18.3925   13.0303 C.3     1  UNL1        0.0310
      8 C          21.2431  -19.5379   13.8350 C.ar    1  UNL1       -0.0224
      9 C          21.0548  -20.7719   13.2400 C.ar    1  UNL1       -0.0073
     10 C          20.5433  -21.8235   13.9747 C.ar    1  UNL1       -0.0090
     11 C          20.2181  -21.6408   15.3124 C.ar    1  UNL1        0.0423
     12 C          20.4030  -20.3988   15.9055 C.ar    1  UNL1       -0.0090
     13 C          20.9206  -19.3527   15.1669 C.ar    1  UNL1       -0.0073
     14 C          20.0456  -20.1943   17.3551 C.3     1  UNL1        0.0323
     15 C          20.3379  -23.1678   13.3254 C.3     1  UNL1        0.0323
     16 O          18.7291  -24.2092   18.1553 O.3     1  UNL1       -0.4387
     17 C          17.7115  -25.0934   18.1747 C.2     1  UNL1        0.3601
     18 O          17.3128  -25.5383   19.2335 O.2     1  UNL1       -0.2432
     19 C          17.0840  -25.5196   16.9155 C.ar    1  UNL1        0.1651
     20 C          17.2670  -26.7955   16.4422 C.ar    1  UNL1        0.0638
     21 S          16.3032  -26.7347   14.9378 S.2     1  UNL1       -0.0510
     22 C          15.7581  -25.0393   15.0843 C.ar    1  UNL1        0.1603
     23 N          16.3317  -24.6700   16.2114 N.ar    1  UNL1       -0.2177
     24 N          14.9500  -24.3047   14.2333 N.pl3   1  UNL1       -0.3093
     25 H          13.9878  -24.5044   14.1738 H       1  UNL1        0.1490
     26 C          15.5267  -23.2301   13.4214 C.3     1  UNL1        0.1155
     27 C          16.7425  -23.7460   12.6957 C.2     1  UNL1       -0.0050
     28 C          16.6853  -23.9836   11.4087 C.2     1  UNL1       -0.0032
@<TRIPOS>BOND
     1     7     8    1
     2     8    13   ar
     3     8     9   ar
     4     9    10   ar
     5    10    11   ar
     6    10    15    1
     7    11    12   ar
     8    11     3    1
     9    12    13   ar
    10    12    14    1
    11     3     4   am
    12     4     5    2
    13     4     1    1
    14     1     2    1
    15     1    16    1
    16    16    17    1
    17    17    18    2
    18    17    19    1
    19    19    23   ar
    20    19    20   ar
    21    20    21   ar
    22    21    22   ar
    23    22    23   ar
    24    22    24    1
    25    24    26    1
    26    26    27    1
    27    27    28    2
    28     3     6    1
    29    24    25    1
#	Name:			ZINC05063018
#	Creating user name:	trannguyen
#	Creation time:		Wed Dec  7 14:36:20 2022


#	Modifying user name:	trannguyen
#	Modification time:	Wed Dec  7 14:36:20 2022

@<TRIPOS>MOLECULE
ZINC05063018
 47 52 0 0 0
SMALL
GASTEIGER

@<TRIPOS>ATOM
      1 O          20.8159  -24.8745   16.1126 O.3     1  UNL1       -0.3201
      2 C          20.7434  -27.3155   16.0759 C.3     1  UNL1        0.2292
      3 C          21.1584  -28.2802   14.9426 C.3     1  UNL1        0.1029
      4 C          21.0115  -27.4352   13.6578 C.3     1  UNL1        0.2131
      5 O          21.1313  -26.0659   14.1010 O.3     1  UNL1       -0.3085
      6 C          20.3949  -26.0018   15.3418 C.3     1  UNL1        0.2791
      7 N          22.0783  -27.7614   12.7081 N.ar    1  UNL1       -0.2728
      8 C          22.2691  -28.9626   12.0911 C.ar    1  UNL1        0.1815
      9 N          23.3105  -28.8918   11.3122 N.ar    1  UNL1       -0.2202
     10 C          23.8438  -27.6510   11.3958 C.ar    1  UNL1        0.1395
     11 C          23.0632  -26.9225   12.2851 C.ar    1  UNL1        0.1463
     12 N          23.3984  -25.6177   12.5459 N.ar    1  UNL1       -0.3123
     13 C          24.4767  -25.0483   11.9442 C.ar    1  UNL1        0.1929
     14 N          25.2407  -25.7027   11.0972 N.ar    1  UNL1       -0.2068
     15 C          24.9932  -26.9834   10.7780 C.ar    1  UNL1        0.1400
     16 S          25.9990  -27.8187    9.6727 S.2     1  UNL1       -0.0283
     17 N          24.7789  -23.7436   12.2315 N.pl3   1  UNL1       -0.3289
     18 H          22.8540  -25.0897   13.1736 H       1  UNL1        0.1700
     19 H          24.2193  -23.2363   12.8630 H       1  UNL1        0.1451
     20 H          25.5556  -23.3132   11.8065 H       1  UNL1        0.1451
     21 O          21.8451  -27.1061   16.9984 O.3     1  UNL1       -0.4468
     22 C          20.8510  -28.5790   18.7125 C.3     1  UNL1        0.1212
     23 C          22.0308  -28.0373   17.9472 C.2     1  UNL1        0.3176
     24 O          23.1439  -28.4411   18.1877 O.2     1  UNL1       -0.2501
     25 C          19.7685  -23.9484   16.4078 C.3     1  UNL1        0.1515
     26 C          19.1885  -24.2613   17.7631 C.ar    1  UNL1        0.0098
     27 C          19.9589  -24.9068   18.7121 C.ar    1  UNL1       -0.0014
     28 C          19.4285  -25.1899   19.9569 C.ar    1  UNL1       -0.0002
     29 C          18.1245  -24.8361   20.2492 C.ar    1  UNL1       -0.0000
     30 C          17.3527  -24.1949   19.2985 C.ar    1  UNL1       -0.0002
     31 C          17.8845  -23.9078   18.0552 C.ar    1  UNL1       -0.0014
     32 C          20.3227  -22.5471   16.4099 C.ar    1  UNL1        0.0100
     33 C          21.2714  -22.1787   15.4739 C.ar    1  UNL1        0.0017
     34 C          21.7768  -20.8930   15.4701 C.ar    1  UNL1        0.0367
     35 C          21.3355  -19.9727   16.4098 C.ar    1  UNL1        0.1387
     36 C          20.3875  -20.3463   17.3512 C.ar    1  UNL1        0.0367
     37 C          19.8852  -21.6332   17.3507 C.ar    1  UNL1        0.0017
     38 O          21.8316  -18.7074   16.4084 O.3     1  UNL1       -0.4714
     39 C          22.1738  -18.1463   15.1395 C.3     1  UNL1        0.2525
     40 C          18.6895  -24.0603   15.3616 C.ar    1  UNL1        0.0100
     41 C          17.6782  -24.9915   15.5101 C.ar    1  UNL1        0.0017
     42 C          16.6848  -25.0922   14.5554 C.ar    1  UNL1        0.0367
     43 C          16.7090  -24.2662   13.4410 C.ar    1  UNL1        0.1387
     44 C          17.7280  -23.3366   13.2916 C.ar    1  UNL1        0.0367
     45 C          18.7156  -23.2356   14.2521 C.ar    1  UNL1        0.0017
     46 O          15.7360  -24.3672   12.4978 O.3     1  UNL1       -0.4714
     47 C          16.0177  -23.8093   11.2128 C.3     1  UNL1        0.2525
@<TRIPOS>BOND
     1    22    23    1
     2    23    24    2
     3    23    21    1
     4    21     2    1
     5     2     6    1
     6     2     3    1
     7     3     4    1
     8     4     5    1
     9     4     7    1
    10     5     6    1
    11     6     1    1
    12     1    25    1
    13    25    26    1
    14    25    32    1
    15    25    40    1
    16    26    31   ar
    17    26    27   ar
    18    27    28   ar
    19    28    29   ar
    20    29    30   ar
    21    30    31   ar
    22    32    37   ar
    23    32    33   ar
    24    33    34   ar
    25    34    35   ar
    26    35    36   ar
    27    35    38    1
    28    36    37   ar
    29    38    39    1
    30    40    45   ar
    31    40    41   ar
    32    41    42   ar
    33    42    43   ar
    34    43    44   ar
    35    43    46    1
    36    44    45   ar
    37    46    47    1
    38     7    11   ar
    39     7     8   ar
    40     8     9   ar
    41     9    10   ar
    42    10    15   ar
    43    10    11   ar
    44    11    12   ar
    45    12    13   ar
    46    13    14   ar
    47    13    17    1
    48    14    15   ar
    49    15    16    2
    50    12    18    1
    51    17    19    1
    52    17    20    1
#	Name:			ZINC05085714
#	Creating user name:	trannguyen
#	Creation time:		Wed Dec  7 14:36:20 2022


#	Modifying user name:	trannguyen
#	Modification time:	Wed Dec  7 14:36:20 2022

@<TRIPOS>MOLECULE
ZINC05085714
 42 47 0 0 0
SMALL
GASTEIGER

@<TRIPOS>ATOM
      1 C          19.0155  -24.6262   13.7066 C.3     1  UNL1        0.1764
      2 C          20.4427  -25.1593   13.9918 C.3     1  UNL1        0.1767
      3 C          21.3267  -23.9627   13.5577 C.3     1  UNL1        0.1958
      4 C          20.3725  -22.7532   13.5942 C.3     1  UNL1        0.2544
      5 O          19.0978  -23.2284   14.0584 O.3     1  UNL1       -0.3298
      6 N          20.8889  -21.7349   14.5122 N.ar    1  UNL1       -0.1867
      7 C          21.2621  -20.4596   14.1912 C.ar    1  UNL1        0.1872
      8 C          21.6866  -19.8645   15.3921 C.ar    1  UNL1        0.1709
      9 C          22.1320  -18.5279   15.3463 C.ar    1  UNL1        0.1498
     10 N          22.1289  -17.8992   14.1767 N.ar    1  UNL1       -0.2077
     11 C          21.7200  -18.5026   13.0751 C.ar    1  UNL1        0.2015
     12 N          21.2954  -19.7477   13.0679 N.ar    1  UNL1       -0.2033
     13 N          22.5615  -17.8865   16.4923 N.pl3   1  UNL1       -0.3412
     14 N          21.5587  -20.7762   16.3712 N.ar    1  UNL1       -0.1242
     15 N          21.0911  -21.8766   15.8935 N.ar    1  UNL1       -0.0603
     16 H          22.5590  -18.3634   17.3536 H       1  UNL1        0.1438
     17 H          22.8699  -16.9527   16.4475 H       1  UNL1        0.1438
     18 C          17.9873  -25.3431   14.5840 C.3     1  UNL1        0.1746
     19 O          17.3536  -24.3957   15.4459 O.3     1  UNL1       -0.3463
     20 C          16.5920  -24.9877   16.5002 C.3     1  UNL1        0.1687
     21 C          18.5610  -24.3143   20.2308 C.ar    1  UNL1       -0.0000
     22 C          17.3411  -24.9636   20.2004 C.ar    1  UNL1       -0.0002
     23 C          16.7039  -25.1816   18.9933 C.ar    1  UNL1       -0.0019
     24 C          17.2866  -24.7501   17.8163 C.ar    1  UNL1        0.0073
     25 C          18.5091  -24.1055   17.8462 C.ar    1  UNL1       -0.0019
     26 C          19.1444  -23.8839   19.0537 C.ar    1  UNL1       -0.0002
     27 O          22.4073  -23.7750   14.4738 O.3     1  UNL1       -0.3443
     28 C          23.6059  -23.2881   13.8667 C.3     1  UNL1        0.1688
     29 C          24.1073  -24.2966   12.8655 C.ar    1  UNL1        0.0073
     30 C          23.8966  -25.6461   13.0790 C.ar    1  UNL1       -0.0019
     31 C          24.3523  -26.5709   12.1582 C.ar    1  UNL1       -0.0002
     32 C          25.0276  -26.1469   11.0289 C.ar    1  UNL1       -0.0000
     33 C          25.2433  -24.7979   10.8183 C.ar    1  UNL1       -0.0002
     34 C          24.7830  -23.8727   11.7365 C.ar    1  UNL1       -0.0019
     35 O          20.6138  -25.4398   15.3825 O.3     1  UNL1       -0.3463
     36 C          20.9825  -26.7919   15.6617 C.3     1  UNL1        0.1687
     37 C          20.4684  -27.1818   17.0236 C.ar    1  UNL1        0.0073
     38 C          21.2156  -26.8986   18.1515 C.ar    1  UNL1       -0.0019
     39 C          20.7420  -27.2523   19.4011 C.ar    1  UNL1       -0.0002
     40 C          19.5257  -27.8979   19.5219 C.ar    1  UNL1       -0.0000
     41 C          18.7806  -28.1854   18.3935 C.ar    1  UNL1       -0.0002
     42 C          19.2523  -27.8277   17.1443 C.ar    1  UNL1       -0.0019
@<TRIPOS>BOND
     1    21    26   ar
     2    21    22   ar
     3    22    23   ar
     4    23    24   ar
     5    24    25   ar
     6    24    20    1
     7    25    26   ar
     8    20    19    1
     9    19    18    1
    10    18     1    1
    11     1     5    1
    12     1     2    1
    13     2     3    1
    14     2    35    1
    15     3     4    1
    16     3    27    1
    17     4     5    1
    18     4     6    1
    19     6    15   ar
    20     6     7   ar
    21     7    12   ar
    22     7     8   ar
    23     8     9   ar
    24     8    14   ar
    25     9    10   ar
    26     9    13    1
    27    10    11   ar
    28    11    12   ar
    29    14    15   ar
    30    27    28    1
    31    28    29    1
    32    29    34   ar
    33    29    30   ar
    34    30    31   ar
    35    31    32   ar
    36    32    33   ar
    37    33    34   ar
    38    35    36    1
    39    36    37    1
    40    37    42   ar
    41    37    38   ar
    42    38    39   ar
    43    39    40   ar
    44    40    41   ar
    45    41    42   ar
    46    13    16    1
    47    13    17    1
#	Name:			ZINC05085717
#	Creating user name:	trannguyen
#	Creation time:		Wed Dec  7 14:36:20 2022


#	Modifying user name:	trannguyen
#	Modification time:	Wed Dec  7 14:36:20 2022

@<TRIPOS>MOLECULE
ZINC05085717
 42 47 0 0 0
SMALL
GASTEIGER

@<TRIPOS>ATOM
      1 C          19.4380  -24.1240   14.4581 C.3     1  UNL1        0.1764
      2 C          20.6733  -25.0405   14.3149 C.3     1  UNL1        0.1767
      3 C          21.6651  -24.2053   13.4746 C.3     1  UNL1        0.1958
      4 C          20.9117  -22.8830   13.2096 C.3     1  UNL1        0.2544
      5 O          19.5136  -23.2240   13.3310 O.3     1  UNL1       -0.3298
      6 N          21.2799  -21.8770   14.2089 N.ar    1  UNL1       -0.1867
      7 C          21.5052  -20.5474   13.9848 C.ar    1  UNL1        0.1872
      8 C          21.8277  -19.9915   15.2352 C.ar    1  UNL1        0.1709
      9 C          22.1107  -18.6117   15.2922 C.ar    1  UNL1        0.1498
     10 N          22.0589  -17.9079   14.1674 N.ar    1  UNL1       -0.2077
     11 C          21.7506  -18.4771   13.0159 C.ar    1  UNL1        0.2015
     12 N          21.4790  -19.7601   12.9128 N.ar    1  UNL1       -0.2033
     13 N          22.4348  -18.0056   16.4909 N.pl3   1  UNL1       -0.3412
     14 N          21.7925  -20.9787   16.1464 N.ar    1  UNL1       -0.1242
     15 N          21.4710  -22.0907   15.5825 N.ar    1  UNL1       -0.0603
     16 H          22.4699  -18.5383   17.3182 H       1  UNL1        0.1438
     17 H          22.6307  -17.0412   16.5178 H       1  UNL1        0.1438
     18 C          18.1517  -24.9500   14.3948 C.3     1  UNL1        0.1746
     19 O          17.7554  -25.3165   15.7180 O.3     1  UNL1       -0.3463
     20 C          17.7755  -24.2346   16.6513 C.3     1  UNL1        0.1687
     21 C          16.3546  -25.5979   20.4421 C.ar    1  UNL1       -0.0000
     22 C          16.9352  -24.3483   20.3302 C.ar    1  UNL1       -0.0002
     23 C          17.3950  -23.9072   19.1035 C.ar    1  UNL1       -0.0019
     24 C          17.2744  -24.7156   17.9887 C.ar    1  UNL1        0.0073
     25 C          16.6891  -25.9630   18.0996 C.ar    1  UNL1       -0.0019
     26 C          16.2344  -26.4065   19.3274 C.ar    1  UNL1       -0.0002
     27 O          22.8636  -23.9594   14.2129 O.3     1  UNL1       -0.3443
     28 C          24.0043  -23.6887   13.3959 C.3     1  UNL1        0.1688
     29 C          24.2335  -24.8431   12.4547 C.ar    1  UNL1        0.0073
     30 C          23.7571  -26.1007   12.7746 C.ar    1  UNL1       -0.0019
     31 C          23.9635  -27.1587   11.9093 C.ar    1  UNL1       -0.0002
     32 C          24.6543  -26.9611   10.7283 C.ar    1  UNL1       -0.0000
     33 C          25.1353  -25.7045   10.4109 C.ar    1  UNL1       -0.0002
     34 C          24.9251  -24.6457   11.2742 C.ar    1  UNL1       -0.0019
     35 O          21.2303  -25.3386   15.5967 O.3     1  UNL1       -0.3463
     36 C          20.8659  -26.6239   16.1040 C.3     1  UNL1        0.1687
     37 C          20.5879  -26.5202   17.5816 C.ar    1  UNL1        0.0073
     38 C          20.9129  -25.3643   18.2665 C.ar    1  UNL1       -0.0019
     39 C          20.6535  -25.2674   19.6209 C.ar    1  UNL1       -0.0002
     40 C          20.0788  -26.3303   20.2924 C.ar    1  UNL1       -0.0000
     41 C          19.7586  -27.4881   19.6084 C.ar    1  UNL1       -0.0002
     42 C          20.0131  -27.5831   18.2530 C.ar    1  UNL1       -0.0019
@<TRIPOS>BOND
     1    21    26   ar
     2    21    22   ar
     3    22    23   ar
     4    23    24   ar
     5    24    25   ar
     6    24    20    1
     7    25    26   ar
     8    20    19    1
     9    19    18    1
    10    18     1    1
    11     1     5    1
    12     1     2    1
    13     2     3    1
    14     2    35    1
    15     3     4    1
    16     3    27    1
    17     4     5    1
    18     4     6    1
    19     6    15   ar
    20     6     7   ar
    21     7    12   ar
    22     7     8   ar
    23     8     9   ar
    24     8    14   ar
    25     9    10   ar
    26     9    13    1
    27    10    11   ar
    28    11    12   ar
    29    14    15   ar
    30    27    28    1
    31    28    29    1
    32    29    34   ar
    33    29    30   ar
    34    30    31   ar
    35    31    32   ar
    36    32    33   ar
    37    33    34   ar
    38    35    36    1
    39    36    37    1
    40    37    42   ar
    41    37    38   ar
    42    38    39   ar
    43    39    40   ar
    44    40    41   ar
    45    41    42   ar
    46    13    16    1
    47    13    17    1
#	Name:			ZINC05085724
#	Creating user name:	trannguyen
#	Creation time:		Wed Dec  7 14:36:19 2022


#	Modifying user name:	trannguyen
#	Modification time:	Wed Dec  7 14:36:19 2022

@<TRIPOS>MOLECULE
ZINC05085724
 42 47 0 0 0
SMALL
GASTEIGER

@<TRIPOS>ATOM
      1 C          19.6394  -24.1535   15.9870 C.3     1  UNL1        0.1764
      2 C          20.5373  -24.6359   14.8261 C.3     1  UNL1        0.1767
      3 C          20.4825  -23.4789   13.8035 C.3     1  UNL1        0.1958
      4 C          19.5580  -22.4344   14.4675 C.3     1  UNL1        0.2544
      5 O          18.7426  -23.1943   15.3858 O.3     1  UNL1       -0.3298
      6 N          20.3513  -21.4394   15.1932 N.ar    1  UNL1       -0.1867
      7 C          20.8810  -20.2871   14.6830 C.ar    1  UNL1        0.1872
      8 C          21.5519  -19.6621   15.7488 C.ar    1  UNL1        0.1709
      9 C          22.1950  -18.4335   15.4957 C.ar    1  UNL1        0.1498
     10 N          22.1317  -17.9265   14.2701 N.ar    1  UNL1       -0.2077
     11 C          21.4838  -18.5502   13.3026 C.ar    1  UNL1        0.2015
     12 N          20.8687  -19.6979   13.4904 N.ar    1  UNL1       -0.2033
     13 N          22.8752  -17.7717   16.5000 N.pl3   1  UNL1       -0.3412
     14 N          21.4153  -20.4414   16.8352 N.ar    1  UNL1       -0.1242
     15 N          20.7206  -21.4863   16.5462 N.ar    1  UNL1       -0.0603
     16 H          22.9150  -18.1579   17.4048 H       1  UNL1        0.1438
     17 H          23.3201  -16.9141   16.3109 H       1  UNL1        0.1438
     18 C          18.8503  -25.3262   16.5727 C.3     1  UNL1        0.1746
     19 O          17.4583  -25.1444   16.3057 O.3     1  UNL1       -0.3463
     20 C          16.6074  -26.0443   17.0186 C.3     1  UNL1        0.1687
     21 C          13.4174  -27.3064   14.4733 C.ar    1  UNL1       -0.0000
     22 C          14.4513  -28.1752   14.7684 C.ar    1  UNL1       -0.0002
     23 C          15.4834  -27.7669   15.5923 C.ar    1  UNL1       -0.0019
     24 C          15.4821  -26.4894   16.1203 C.ar    1  UNL1        0.0073
     25 C          14.4458  -25.6222   15.8292 C.ar    1  UNL1       -0.0019
     26 C          13.4157  -26.0292   15.0021 C.ar    1  UNL1       -0.0002
     27 O          21.7865  -22.9327   13.5951 O.3     1  UNL1       -0.3443
     28 C          22.8365  -23.6867   14.2043 C.3     1  UNL1        0.1688
     29 C          23.6840  -24.3239   13.1334 C.ar    1  UNL1        0.0073
     30 C          24.4740  -23.5362   12.3172 C.ar    1  UNL1       -0.0019
     31 C          25.2469  -24.1202   11.3311 C.ar    1  UNL1       -0.0002
     32 C          25.2383  -25.4929   11.1684 C.ar    1  UNL1       -0.0000
     33 C          24.4479  -26.2806   11.9843 C.ar    1  UNL1       -0.0002
     34 C          23.6709  -25.6961   12.9670 C.ar    1  UNL1       -0.0019
     35 O          20.0136  -25.8357   14.2533 O.3     1  UNL1       -0.3463
     36 C          19.9235  -25.8079   12.8275 C.3     1  UNL1        0.1687
     37 C          18.5866  -25.2444   12.4196 C.ar    1  UNL1        0.0073
     38 C          17.4446  -25.6058   13.1096 C.ar    1  UNL1       -0.0019
     39 C          16.2190  -25.0851   12.7385 C.ar    1  UNL1       -0.0002
     40 C          16.1340  -24.2110   11.6711 C.ar    1  UNL1       -0.0000
     41 C          17.2752  -23.8540   10.9774 C.ar    1  UNL1       -0.0002
     42 C          18.5016  -24.3706   11.3518 C.ar    1  UNL1       -0.0019
@<TRIPOS>BOND
     1    21    26   ar
     2    21    22   ar
     3    22    23   ar
     4    23    24   ar
     5    24    25   ar
     6    24    20    1
     7    25    26   ar
     8    20    19    1
     9    19    18    1
    10    18     1    1
    11     1     5    1
    12     1     2    1
    13     2     3    1
    14     2    35    1
    15     3     4    1
    16     3    27    1
    17     4     5    1
    18     4     6    1
    19     6    15   ar
    20     6     7   ar
    21     7    12   ar
    22     7     8   ar
    23     8     9   ar
    24     8    14   ar
    25     9    10   ar
    26     9    13    1
    27    10    11   ar
    28    11    12   ar
    29    14    15   ar
    30    27    28    1
    31    28    29    1
    32    29    34   ar
    33    29    30   ar
    34    30    31   ar
    35    31    32   ar
    36    32    33   ar
    37    33    34   ar
    38    35    36    1
    39    36    37    1
    40    37    42   ar
    41    37    38   ar
    42    38    39   ar
    43    39    40   ar
    44    40    41   ar
    45    41    42   ar
    46    13    16    1
    47    13    17    1
#	Name:			ZINC05105597
#	Creating user name:	trannguyen
#	Creation time:		Wed Dec  7 14:36:19 2022


#	Modifying user name:	trannguyen
#	Modification time:	Wed Dec  7 14:36:19 2022

@<TRIPOS>MOLECULE
ZINC05105597
 49 52 0 0 0
SMALL
GASTEIGER

@<TRIPOS>ATOM
      1 C          22.2437  -30.0191   10.8487 C.ar    1  UNL1        0.1515
      2 C          23.4025  -29.9336   10.0899 C.ar    1  UNL1        0.0383
      3 C          24.1347  -28.7660   10.0727 C.ar    1  UNL1        0.0077
      4 C          23.7184  -27.6684   10.8299 C.ar    1  UNL1        0.0548
      5 C          22.5522  -27.7528   11.5948 C.ar    1  UNL1        0.0217
      6 C          21.8183  -28.9249   11.6032 C.ar    1  UNL1        0.0761
      7 N          20.6494  -29.0141   12.3685 N.pl3   1  UNL1       -0.3546
      8 H          20.1272  -29.8487   12.3742 H       1  UNL1        0.1424
      9 H          20.3496  -28.2422   12.9010 H       1  UNL1        0.1424
     10 C          24.5058  -26.4198   10.8172 C.2     1  UNL1        0.2459
     11 O          25.4002  -26.2735   10.0066 O.2     1  UNL1       -0.2701
     12 N          24.2333  -25.4422   11.7039 N.am    1  UNL1       -0.2992
     13 H          23.5091  -25.5607   12.3602 H       1  UNL1        0.1498
     14 C          25.0148  -24.2032   11.6912 C.3     1  UNL1        0.1109
     15 C          24.3152  -23.1501   12.5529 C.3     1  UNL1        0.1109
     16 N          22.9209  -23.5439   12.7694 N.am    1  UNL1       -0.2991
     17 C          22.2432  -23.0671   13.8324 C.2     1  UNL1        0.2488
     18 O          22.7893  -22.3099   14.6118 O.2     1  UNL1       -0.2700
     19 H          22.4789  -24.1568   12.1384 H       1  UNL1        0.1498
     20 C          20.8409  -23.4631   14.0499 C.ar    1  UNL1        0.0870
     21 C          20.4895  -24.1884   15.2038 C.ar    1  UNL1        0.0076
     22 C          19.2060  -24.5638   15.4268 C.ar    1  UNL1        0.0003
     23 C          18.1988  -24.2309   14.5000 C.ar    1  UNL1        0.0029
     24 C          16.8642  -24.6120   14.7147 C.ar    1  UNL1        0.0001
     25 C          15.9110  -24.2769   13.8015 C.ar    1  UNL1        0.0000
     26 C          16.2398  -23.5645   12.6507 C.ar    1  UNL1        0.0001
     27 C          17.5225  -23.1733   12.4126 C.ar    1  UNL1        0.0030
     28 C          18.5316  -23.5014   13.3325 C.ar    1  UNL1        0.0339
     29 C          19.8704  -23.1171   13.1127 C.ar    1  UNL1        0.1379
     30 O          20.2089  -22.4196   12.0023 O.3     1  UNL1       -0.5054
     31 H          21.1002  -22.1668   11.8614 H       1  UNL1        0.2922
     32 O          21.5225  -31.1699   10.8572 O.3     1  UNL1       -0.4702
     33 C          22.1451  -32.3215   11.4301 C.3     1  UNL1        0.2525
     34 C          21.0997  -33.1428   12.1873 C.3     1  UNL1        0.2525
     35 O          20.5069  -34.0935   11.3004 O.3     1  UNL1       -0.4714
     36 C          16.4049  -33.9604   10.8814 C.ar    1  UNL1       -0.0226
     37 C          16.9836  -34.9012   11.7133 C.ar    1  UNL1       -0.0012
     38 C          18.3569  -34.9477   11.8553 C.ar    1  UNL1        0.0366
     39 C          19.1556  -34.0496   11.1624 C.ar    1  UNL1        0.1387
     40 C          18.5723  -33.1030   10.3328 C.ar    1  UNL1        0.0366
     41 C          17.1988  -33.0645   10.1893 C.ar    1  UNL1       -0.0012
     42 C          14.9065  -33.9118   10.7284 C.3     1  UNL1        0.0189
     43 C          14.5168  -34.4522    9.3511 C.3     1  UNL1        0.0044
     44 C          14.2548  -34.7686   11.8154 C.3     1  UNL1        0.0044
     45 C          14.4268  -32.4651   10.8631 C.3     1  UNL1        0.0040
     46 C          14.0809  -32.9427   13.2910 C.3     1  UNL1        0.0000
     47 C          13.4411  -32.3612   12.0287 C.3     1  UNL1        0.0003
     48 C          13.0864  -30.8921   12.2671 C.3     1  UNL1        0.0000
     49 C          12.1705  -33.1447   11.6935 C.3     1  UNL1        0.0000
@<TRIPOS>BOND
     1    46    47    1
     2    47    48    1
     3    47    49    1
     4    47    45    1
     5    45    42    1
     6    42    43    1
     7    42    44    1
     8    42    36    1
     9    36    41   ar
    10    36    37   ar
    11    37    38   ar
    12    38    39   ar
    13    39    40   ar
    14    39    35    1
    15    40    41   ar
    16    35    34    1
    17    34    33    1
    18    33    32    1
    19    32     1    1
    20     1     6   ar
    21     1     2   ar
    22     2     3   ar
    23     3     4   ar
    24     4     5   ar
    25     4    10    1
    26     5     6   ar
    27     6     7    1
    28    10    11    2
    29    10    12   am
    30    12    14    1
    31    14    15    1
    32    15    16    1
    33    16    17   am
    34    17    18    2
    35    17    20    1
    36    20    29   ar
    37    20    21   ar
    38    21    22   ar
    39    22    23   ar
    40    23    28   ar
    41    23    24   ar
    42    24    25   ar
    43    25    26   ar
    44    26    27   ar
    45    27    28   ar
    46    28    29   ar
    47    29    30    1
    48     7     8    1
    49     7     9    1
    50    12    13    1
    51    16    19    1
    52    30    31    1
#	Name:			ZINC05185538
#	Creating user name:	trannguyen
#	Creation time:		Wed Dec  7 14:36:19 2022


#	Modifying user name:	trannguyen
#	Modification time:	Wed Dec  7 14:36:19 2022

@<TRIPOS>MOLECULE
ZINC05185538
 29 33 0 0 0
SMALL
GASTEIGER

@<TRIPOS>ATOM
      1 C          21.0218  -20.0132   13.1826 C.3     1  UNL1        0.2927
      2 C          20.3781  -21.3667   13.0259 C.2     1  UNL1        0.2670
      3 O          21.0651  -22.3449   12.8205 O.2     1  UNL1       -0.2711
      4 N          19.0389  -21.4903   13.1138 N.am    1  UNL1       -0.3044
      5 H          18.4812  -20.6963   13.2804 H       1  UNL1        0.1494
      6 C          18.4131  -22.8061   12.9613 C.3     1  UNL1        0.0568
      7 C          18.7609  -23.3801   11.5865 C.3     1  UNL1        0.0180
      8 C          18.1074  -24.7543   11.4273 C.3     1  UNL1        0.0016
      9 C          16.5888  -24.6144   11.5522 C.3     1  UNL1        0.0001
     10 C          16.2410  -24.0404   12.9271 C.3     1  UNL1        0.0016
     11 C          16.8946  -22.6662   13.0863 C.3     1  UNL1        0.0180
     12 C          16.7580  -24.9805   14.0179 C.3     1  UNL1        0.0001
     13 C          18.2764  -25.1204   13.8929 C.3     1  UNL1        0.0016
     14 C          18.6243  -25.6944   12.5181 C.3     1  UNL1        0.0001
     15 C          18.9300  -23.7462   14.0521 C.3     1  UNL1        0.0180
     16 O          20.6839  -19.4644   14.4838 O.3     1  UNL1       -0.4353
     17 C          21.5406  -19.7147   15.4953 C.2     1  UNL1        0.3419
     18 O          22.5057  -18.9952   15.6667 O.2     1  UNL1       -0.2449
     19 C          20.0484  -21.2695   16.6358 C.2     1  UNL1        0.0324
     20 C          21.3082  -20.8530   16.3870 C.2     1  UNL1        0.0840
     21 C          17.5524  -25.6211   20.1803 C.ar    1  UNL1        0.0016
     22 C          18.7836  -26.1795   20.5017 C.ar    1  UNL1        0.0006
     23 C          19.9364  -25.6257   19.9794 C.ar    1  UNL1        0.0080
     24 C          19.8457  -24.5327   19.1513 C.ar    1  UNL1        0.0485
     25 C          18.6051  -23.9400   18.8043 C.ar    1  UNL1        0.0878
     26 C          17.4488  -24.5407   19.3639 C.ar    1  UNL1        0.0196
     27 N          18.6739  -22.8823   17.9891 N.ar    1  UNL1       -0.2383
     28 C          19.8155  -22.4103   17.5297 C.ar    1  UNL1        0.1110
     29 S          21.0079  -23.5157   18.2730 S.2     1  UNL1       -0.0665
@<TRIPOS>BOND
     1    21    26   ar
     2    21    22   ar
     3    22    23   ar
     4    23    24   ar
     5    24    29   ar
     6    24    25   ar
     7    25    26   ar
     8    25    27   ar
     9    27    28   ar
    10    28    29   ar
    11    28    19    1
    12    19    20    2
    13    20    17    1
    14    17    18    2
    15    17    16    1
    16    16     1    1
    17     1     2    1
    18     2     3    2
    19     2     4   am
    20     4     6    1
    21     6    11    1
    22     6    15    1
    23     6     7    1
    24     7     8    1
    25     8    14    1
    26     8     9    1
    27     9    10    1
    28    10    11    1
    29    10    12    1
    30    12    13    1
    31    13    14    1
    32    13    15    1
    33     4     5    1
#	Name:			ZINC05440405
#	Creating user name:	trannguyen
#	Creation time:		Wed Dec  7 14:36:19 2022


#	Modifying user name:	trannguyen
#	Modification time:	Wed Dec  7 14:36:19 2022

@<TRIPOS>MOLECULE
ZINC05440405
 48 52 0 0 0
SMALL
GASTEIGER

@<TRIPOS>ATOM
      1 C          21.4012  -24.5854   18.9295 C.3     1  UNL1        0.0343
      2 C          19.9743  -25.0667   18.9886 C.ar    1  UNL1        0.0142
      3 C          19.4973  -25.6568   20.1396 C.ar    1  UNL1       -0.0010
      4 C          18.1869  -26.1072   20.2160 C.ar    1  UNL1        0.0059
      5 C          17.3345  -25.9697   19.1297 C.ar    1  UNL1        0.0739
      6 C          17.8130  -25.3696   17.9366 C.ar    1  UNL1        0.1198
      7 C          19.1455  -24.9132   17.8802 C.ar    1  UNL1        0.1589
      8 O          19.6246  -24.3334   16.7573 O.2     1  UNL1       -0.4510
      9 C          18.8129  -24.1897   15.6889 C.ar    1  UNL1        0.1621
     10 C          19.2698  -23.6045   14.5312 C.ar    1  UNL1        0.0543
     11 C          18.4288  -23.4544   13.4230 C.ar    1  UNL1        0.2076
     12 O          18.8590  -22.9310   12.4071 O.2     1  UNL1       -0.2855
     13 C          17.0317  -23.9195   13.4648 C.ar    1  UNL1        0.0867
     14 C          16.5356  -24.5148   14.6145 C.ar    1  UNL1        0.0899
     15 C          17.4247  -24.6686   15.7749 C.ar    1  UNL1        0.1212
     16 N          16.9931  -25.2295   16.8872 N.ar    1  UNL1       -0.2389
     17 N          16.2202  -23.7638   12.3640 N.pl3   1  UNL1       -0.3544
     18 C          20.6939  -23.1173   14.4557 C.3     1  UNL1        0.0377
     19 H          16.5733  -23.3410   11.5480 H       1  UNL1        0.1424
     20 H          15.2867  -24.0752   12.3926 H       1  UNL1        0.1424
     21 C          15.1429  -24.9840   14.6723 C.2     1  UNL1        0.2487
     22 O          14.2327  -24.1801   14.7434 O.2     1  UNL1       -0.2700
     23 N          14.8751  -26.3046   14.6463 N.am    1  UNL1       -0.3004
     24 H          15.6118  -26.9552   14.5887 H       1  UNL1        0.1498
     25 C          13.4879  -26.7720   14.7039 C.3     1  UNL1        0.0944
     26 C          13.1227  -27.4496   13.3816 C.3     1  UNL1        0.0476
     27 C          12.1869  -28.6003   13.6484 C.ar    1  UNL1       -0.0203
     28 C          12.6933  -29.8741   13.8290 C.ar    1  UNL1       -0.0011
     29 C          11.8380  -30.9297   14.0793 C.ar    1  UNL1        0.0366
     30 C          10.4690  -30.7127   14.1382 C.ar    1  UNL1        0.1387
     31 C           9.9629  -29.4345   13.9511 C.ar    1  UNL1        0.0366
     32 C          10.8229  -28.3813   13.7067 C.ar    1  UNL1       -0.0011
     33 O           9.6251  -31.7503   14.3793 O.3     1  UNL1       -0.4714
     34 C          10.1699  -33.0672   14.2752 C.3     1  UNL1        0.2525
     35 C          15.9410  -26.4500   19.2130 C.2     1  UNL1        0.2474
     36 O          15.2348  -26.1084   20.1417 O.2     1  UNL1       -0.2701
     37 N          15.4519  -27.2672   18.2595 N.am    1  UNL1       -0.3005
     38 H          16.0238  -27.5439   17.5074 H       1  UNL1        0.1498
     39 C          14.0690  -27.7439   18.3421 C.3     1  UNL1        0.0944
     40 C          13.8689  -28.9009   17.3613 C.3     1  UNL1        0.0476
     41 C          12.4729  -29.4490   17.5090 C.ar    1  UNL1       -0.0203
     42 C          11.3855  -28.5990   17.4280 C.ar    1  UNL1       -0.0011
     43 C          10.1048  -29.0990   17.5627 C.ar    1  UNL1        0.0366
     44 C           9.9102  -30.4554   17.7795 C.ar    1  UNL1        0.1387
     45 C          11.0030  -31.3064   17.8599 C.ar    1  UNL1        0.0366
     46 C          12.2817  -30.8013   17.7250 C.ar    1  UNL1       -0.0011
     47 O           8.6513  -30.9498   17.9127 O.3     1  UNL1       -0.4714
     48 C           7.7427  -30.2008   18.7223 C.3     1  UNL1        0.2525
@<TRIPOS>BOND
     1     1     2    1
     2     2     7   ar
     3     2     3   ar
     4     3     4   ar
     5     4     5   ar
     6     5     6   ar
     7     5    35    1
     8     6    16   ar
     9     6     7   ar
    10     7     8   ar
    11     8     9   ar
    12     9    15    1
    13     9    10   ar
    14    10    11   ar
    15    10    18    1
    16    11    12    2
    17    11    13   ar
    18    13    14   ar
    19    13    17    1
    20    14    15   ar
    21    14    21    1
    22    15    16   ar
    23    21    22    2
    24    21    23   am
    25    23    25    1
    26    25    26    1
    27    26    27    1
    28    27    32   ar
    29    27    28   ar
    30    28    29   ar
    31    29    30   ar
    32    30    31   ar
    33    30    33    1
    34    31    32   ar
    35    33    34    1
    36    35    36    2
    37    35    37   am
    38    37    39    1
    39    39    40    1
    40    40    41    1
    41    41    46   ar
    42    41    42   ar
    43    42    43   ar
    44    43    44   ar
    45    44    45   ar
    46    44    47    1
    47    45    46   ar
    48    47    48    1
    49    23    24    1
    50    17    19    1
    51    17    20    1
    52    37    38    1
#	Name:			ZINC05478286
#	Creating user name:	trannguyen
#	Creation time:		Wed Dec  7 14:36:20 2022


#	Modifying user name:	trannguyen
#	Modification time:	Wed Dec  7 14:36:20 2022

@<TRIPOS>MOLECULE
ZINC05478286
 32 34 0 0 0
SMALL
GASTEIGER

@<TRIPOS>ATOM
      1 C          19.5527  -22.6750   13.8959 C.ar    1  UNL1        0.0741
      2 C          18.3633  -23.3385   13.3566 C.ar    1  UNL1        0.0337
      3 C          17.1949  -23.8402   13.9395 C.ar    1  UNL1        0.0396
      4 C          16.2324  -24.4257   13.1437 C.ar    1  UNL1        0.1387
      5 C          16.4211  -24.5179   11.7663 C.ar    1  UNL1        0.0384
      6 C          17.5660  -24.0282   11.1809 C.ar    1  UNL1        0.0201
      7 C          18.5512  -23.4328   11.9655 C.ar    1  UNL1        0.0582
      8 N          19.7703  -22.8680   11.6633 N.ar    1  UNL1       -0.3470
      9 C          20.3755  -22.4048   12.8221 C.ar    1  UNL1        0.1469
     10 H          20.1550  -22.8028   10.7594 H       1  UNL1        0.1662
     11 C          20.2697  -23.3221   16.0625 C.2     1  UNL1        0.2821
     12 O          20.5430  -24.4227   15.6325 O.2     1  UNL1       -0.2684
     13 N          19.8012  -22.3709   15.2306 N.am    1  UNL1       -0.2778
     14 H          19.6349  -21.4609   15.5674 H       1  UNL1        0.1551
     15 C          20.4538  -23.0182   17.5270 C.3     1  UNL1        0.1915
     16 C          19.0724  -24.0672   19.2150 C.3     1  UNL1        0.0558
     17 C          18.7745  -25.3945   19.9163 C.3     1  UNL1        0.0552
     18 C          20.0055  -25.8317   20.7148 C.3     1  UNL1        0.0120
     19 C          21.2029  -25.9500   19.7677 C.3     1  UNL1        0.0611
     20 C          21.4304  -24.6068   19.0707 C.3     1  UNL1        0.1056
     21 N          20.2184  -24.2546   18.3004 N.4     1  UNL1        0.2787
     22 H          20.0050  -25.0148   17.6549 H       1  UNL1        0.2070
     23 C          17.2313  -24.8613   17.7243 C.3     1  UNL1        0.0061
     24 C          17.8517  -23.6365   18.3993 C.3     1  UNL1        0.0550
     25 C          21.6374  -21.7610   12.8922 C.2     1  UNL1        0.3583
     26 O          21.8687  -20.7972   12.1864 O.2     1  UNL1       -0.2432
     27 O          22.5813  -22.2173   13.7419 O.3     1  UNL1       -0.4444
     28 C          23.1771  -23.4789   13.4328 C.3     1  UNL1        0.2089
     29 C          24.3387  -23.2696   12.4593 C.3     1  UNL1        0.0513
     30 O          15.0947  -24.9151   13.7056 O.3     1  UNL1       -0.4755
     31 C          15.2411  -25.9880   14.6381 C.3     1  UNL1        0.2055
     32 C          14.1187  -27.0057   14.4249 C.3     1  UNL1        0.0512
@<TRIPOS>UNITY_ATOM_ATTR
21 1
charge 1
@<TRIPOS>BOND
     1    23    24    1
     2    24    16    1
     3    16    17    1
     4    16    21    1
     5    17    18    1
     6    18    19    1
     7    19    20    1
     8    20    21    1
     9    15    11    1
    10    15    21    1
    11    11    12    2
    12    11    13   am
    13    13     1    1
    14     1     9   ar
    15     1     2   ar
    16     2     7   ar
    17     2     3   ar
    18     3     4   ar
    19     4     5   ar
    20     4    30    1
    21     5     6   ar
    22     6     7   ar
    23     7     8   ar
    24     8     9   ar
    25     9    25    1
    26    25    26    2
    27    25    27    1
    28    27    28    1
    29    28    29    1
    30    30    31    1
    31    31    32    1
    32    13    14    1
    33     8    10    1
    34    21    22    1
#	Name:			ZINC05519412
#	Creating user name:	trannguyen
#	Creation time:		Wed Dec  7 14:36:19 2022


#	Modifying user name:	trannguyen
#	Modification time:	Wed Dec  7 14:36:19 2022

@<TRIPOS>MOLECULE
ZINC05519412
 46 49 0 0 0
SMALL
GASTEIGER

@<TRIPOS>ATOM
      1 C          20.6521  -25.4956   17.7589 C.2     1  UNL1        0.0906
      2 C          21.3266  -24.7895   18.6705 C.2     1  UNL1        0.1771
      3 O          21.0764  -23.4949   18.9267 O.2     1  UNL1       -0.4492
      4 C          20.2966  -22.7559   17.9477 C.3     1  UNL1        0.2938
      5 C          19.0666  -23.5964   17.5786 C.3     1  UNL1        0.0967
      6 C          19.5508  -24.8962   16.9280 C.3     1  UNL1        0.0444
      7 C          20.9857  -26.8579   17.5682 C.2     1  UNL1        0.3404
      8 O          21.6036  -27.2001   16.5775 O.2     1  UNL1       -0.2451
      9 C          21.6673  -28.4667   19.1684 C.3     1  UNL1        0.2559
     10 O          20.6186  -27.7772   18.4852 O.3     1  UNL1       -0.4415
     11 C          18.2766  -23.9143   18.8220 C.2     1  UNL1       -0.0199
     12 C          16.9859  -23.6920   18.8527 C.2     1  UNL1       -0.0047
     13 C          18.3867  -25.8846   16.8353 C.3     1  UNL1        0.0352
     14 C          17.7324  -25.7741   15.4566 C.3     1  UNL1        0.1228
     15 C          17.9706  -24.3698   14.8879 C.3     1  UNL1        0.0941
     16 C          17.1523  -24.2303   13.6205 C.2     1  UNL1        0.1555
     17 O          17.6421  -23.8018   12.6032 O.2     1  UNL1       -0.2959
     18 C          15.6972  -24.6486   13.6756 C.3     1  UNL1        0.0941
     19 C          15.6239  -26.0326   14.3323 C.3     1  UNL1        0.1228
     20 O          16.3270  -26.0025   15.5759 O.3     1  UNL1       -0.3578
     21 C          14.1605  -26.4033   14.5807 C.3     1  UNL1        0.0347
     22 C          13.9402  -27.8756   14.2277 C.3     1  UNL1        0.0289
     23 C          12.4619  -28.1625   14.1691 C.ar    1  UNL1       -0.0219
     24 C          11.8559  -28.4170   12.9527 C.ar    1  UNL1       -0.0012
     25 C          10.5020  -28.6857   12.8969 C.ar    1  UNL1        0.0363
     26 C           9.7483  -28.6893   14.0616 C.ar    1  UNL1        0.1337
     27 C          10.3576  -28.4281   15.2803 C.ar    1  UNL1        0.0363
     28 C          11.7128  -28.1650   15.3312 C.ar    1  UNL1       -0.0012
     29 O           8.4151  -28.9479   14.0089 O.3     1  UNL1       -0.5055
     30 H           8.0044  -29.1242   13.1854 H       1  UNL1        0.2922
     31 O          21.0869  -22.5203   16.7808 O.3     1  UNL1       -0.2932
     32 C          20.5540  -21.5203   15.9100 C.3     1  UNL1        0.2682
     33 C          20.2916  -22.1311   14.5311 C.3     1  UNL1        0.1965
     34 C          19.7777  -21.0397   13.5872 C.3     1  UNL1        0.1715
     35 C          20.8023  -19.9024   13.5337 C.3     1  UNL1        0.1694
     36 C          21.0450  -19.3775   14.9512 C.3     1  UNL1        0.1761
     37 O          21.4916  -20.4491   15.7845 O.3     1  UNL1       -0.3259
     38 O          22.0297  -20.3906   12.9885 O.3     1  UNL1       -0.3794
     39 O          19.5997  -21.5847   12.2782 O.3     1  UNL1       -0.3794
     40 O          21.5055  -22.6784   14.0124 O.3     1  UNL1       -0.3775
     41 H          22.3690  -21.1076   13.5468 H       1  UNL1        0.2105
     42 H          20.4473  -21.9251   11.9517 H       1  UNL1        0.2105
     43 H          22.1699  -21.9760   13.9354 H       1  UNL1        0.2106
     44 C          22.1118  -18.2815   14.9140 C.3     1  UNL1        0.1693
     45 O          21.9891  -17.5383   13.6996 O.3     1  UNL1       -0.3794
     46 H          22.1101  -18.1330   12.9430 H       1  UNL1        0.2105
@<TRIPOS>BOND
     1     9    10    1
     2    10     7    1
     3     7     8    2
     4     7     1    1
     5     1     6    1
     6     1     2    2
     7     2     3    1
     8     3     4    1
     9     4     5    1
    10     4    31    1
    11     5     6    1
    12     5    11    1
    13     6    13    1
    14    13    14    1
    15    14    20    1
    16    14    15    1
    17    15    16    1
    18    16    17    2
    19    16    18    1
    20    18    19    1
    21    19    20    1
    22    19    21    1
    23    21    22    1
    24    22    23    1
    25    23    28   ar
    26    23    24   ar
    27    24    25   ar
    28    25    26   ar
    29    26    27   ar
    30    26    29    1
    31    27    28   ar
    32    11    12    2
    33    31    32    1
    34    32    37    1
    35    32    33    1
    36    33    34    1
    37    33    40    1
    38    34    35    1
    39    34    39    1
    40    35    36    1
    41    35    38    1
    42    36    37    1
    43    36    44    1
    44    44    45    1
    45    29    30    1
    46    45    46    1
    47    38    41    1
    48    39    42    1
    49    40    43    1
#	Name:			ZINC05542161
#	Creating user name:	trannguyen
#	Creation time:		Wed Dec  7 14:36:20 2022


#	Modifying user name:	trannguyen
#	Modification time:	Wed Dec  7 14:36:20 2022

@<TRIPOS>MOLECULE
ZINC05542161
 45 47 0 0 0
SMALL
GASTEIGER

@<TRIPOS>ATOM
      1 C          22.0405  -26.9095   13.3002 C.3     1  UNL1        0.1530
      2 N          21.3511  -27.4423   15.6152 N.am    1  UNL1       -0.2954
      3 C          21.4211  -27.8248   14.3248 C.2     1  UNL1        0.2410
      4 O          20.9857  -28.9055   13.9882 O.2     1  UNL1       -0.2733
      5 H          21.7046  -26.5650   15.8885 H       1  UNL1        0.1499
      6 C          19.2680  -27.9854   16.7758 C.3     1  UNL1        0.0334
      7 C          20.7491  -28.3320   16.6113 C.3     1  UNL1        0.1715
      8 C          21.4551  -28.1590   17.9314 C.2     1  UNL1        0.3353
      9 O          21.4766  -29.0666   18.7285 O.2     1  UNL1       -0.2483
     10 O          22.0600  -26.9963   18.2216 O.3     1  UNL1       -0.4424
     11 C          21.5455  -26.2508   19.3564 C.3     1  UNL1        0.2351
     12 C          20.5682  -25.2106   18.8727 C.ar    1  UNL1        0.0213
     13 C          19.3636  -25.0363   19.5279 C.ar    1  UNL1       -0.0007
     14 C          18.4694  -24.0785   19.0874 C.ar    1  UNL1       -0.0002
     15 C          18.7751  -23.3027   17.9850 C.ar    1  UNL1       -0.0000
     16 C          19.9773  -23.4808   17.3263 C.ar    1  UNL1       -0.0002
     17 C          20.8740  -24.4347   17.7703 C.ar    1  UNL1       -0.0007
     18 N          21.3510  -25.6170   13.3199 N.am    1  UNL1       -0.2967
     19 C          21.9949  -24.5164   13.7564 C.2     1  UNL1        0.2411
     20 O          23.1451  -24.5961   14.1329 O.2     1  UNL1       -0.2733
     21 H          20.4174  -25.5524   13.0143 H       1  UNL1        0.1499
     22 C          21.2858  -23.1869   13.7767 C.3     1  UNL1        0.1554
     23 N          20.2285  -23.1818   12.7625 N.am    1  UNL1       -0.2637
     24 C          18.9727  -22.8273   13.1000 C.2     1  UNL1        0.4017
     25 O          18.7175  -22.5120   14.2454 O.2     1  UNL1       -0.2264
     26 H          20.4352  -23.4374   11.8344 H       1  UNL1        0.1532
     27 O          18.0010  -22.8227   12.1681 O.3     1  UNL1       -0.4419
     28 C          17.3135  -24.0785   11.9264 C.3     1  UNL1        0.1378
     29 C          15.9689  -23.8021   11.2510 C.3     1  UNL1        0.0437
     30 C          18.1695  -24.9616   11.0163 C.3     1  UNL1        0.0437
     31 C          17.0778  -24.7952   13.2574 C.3     1  UNL1        0.0437
     32 C          22.2871  -22.0701   13.4751 C.3     1  UNL1        0.0554
     33 C          21.8356  -20.7967   14.1428 C.ar    1  UNL1       -0.0200
     34 C          21.6170  -20.7718   15.5075 C.ar    1  UNL1       -0.0042
     35 C          21.2075  -19.6025   16.1207 C.ar    1  UNL1       -0.0003
     36 C          21.0065  -18.4609   15.3675 C.ar    1  UNL1       -0.0000
     37 C          21.2200  -18.4872   14.0020 C.ar    1  UNL1       -0.0003
     38 C          21.6346  -19.6551   13.3896 C.ar    1  UNL1       -0.0042
     39 C          21.9092  -27.5364   11.9107 C.3     1  UNL1        0.0553
     40 C          23.2791  -27.8707   11.3791 C.ar    1  UNL1       -0.0200
     41 C          23.4659  -29.0086   10.6167 C.ar    1  UNL1       -0.0042
     42 C          24.7216  -29.3128   10.1251 C.ar    1  UNL1       -0.0003
     43 C          25.7925  -28.4846   10.4045 C.ar    1  UNL1       -0.0000
     44 C          25.6067  -27.3495   11.1713 C.ar    1  UNL1       -0.0003
     45 C          24.3501  -27.0426   11.6586 C.ar    1  UNL1       -0.0042
@<TRIPOS>BOND
     1     6     7    1
     2     7     8    1
     3     7     2    1
     4     8     9    2
     5     8    10    1
     6    10    11    1
     7    11    12    1
     8    12    17   ar
     9    12    13   ar
    10    13    14   ar
    11    14    15   ar
    12    15    16   ar
    13    16    17   ar
    14     2     3   am
    15     3     4    2
    16     3     1    1
    17     1    39    1
    18     1    18    1
    19    39    40    1
    20    40    45   ar
    21    40    41   ar
    22    41    42   ar
    23    42    43   ar
    24    43    44   ar
    25    44    45   ar
    26    18    19   am
    27    19    20    2
    28    19    22    1
    29    22    32    1
    30    22    23    1
    31    32    33    1
    32    33    38   ar
    33    33    34   ar
    34    34    35   ar
    35    35    36   ar
    36    36    37   ar
    37    37    38   ar
    38    23    24   am
    39    24    25    2
    40    24    27    1
    41    27    28    1
    42    28    29    1
    43    28    30    1
    44    28    31    1
    45     2     5    1
    46    18    21    1
    47    23    26    1
#	Name:			ZINC05582109
#	Creating user name:	trannguyen
#	Creation time:		Wed Dec  7 14:36:19 2022


#	Modifying user name:	trannguyen
#	Modification time:	Wed Dec  7 14:36:19 2022

@<TRIPOS>MOLECULE
ZINC05582109
 47 50 0 0 0
SMALL
GASTEIGER

@<TRIPOS>ATOM
      1 O          18.6460  -25.4176   15.7502 O.3     1  UNL1       -0.4349
      2 C          19.1505  -24.1608   15.8094 C.ar    1  UNL1        0.2477
      3 C          19.1348  -23.4546   17.0337 C.ar    1  UNL1        0.1346
      4 N          19.6277  -22.2318   17.1055 N.ar    1  UNL1       -0.2391
      5 C          20.1353  -21.6546   16.0100 C.ar    1  UNL1        0.1003
      6 C          20.6610  -20.3517   16.0604 C.ar    1  UNL1        0.0246
      7 C          21.1744  -19.7798   14.9366 C.ar    1  UNL1        0.0742
      8 C          21.1895  -20.4650   13.7254 C.ar    1  UNL1        0.0196
      9 C          20.6833  -21.7439   13.6337 C.ar    1  UNL1        0.0609
     10 C          20.1450  -22.3624   14.7829 C.ar    1  UNL1        0.1148
     11 N          19.6472  -23.6034   14.7252 N.ar    1  UNL1       -0.2073
     12 N          20.7037  -22.4217   12.4157 N.pl3   1  UNL1       -0.3558
     13 H          21.0800  -21.9869   11.6166 H       1  UNL1        0.1424
     14 H          20.3419  -23.3352   12.3546 H       1  UNL1        0.1424
     15 C          18.5670  -24.0923   18.2447 C.ar    1  UNL1        0.0223
     16 C          17.2910  -23.7444   18.6862 C.ar    1  UNL1        0.0017
     17 C          16.7649  -24.3466   19.8109 C.ar    1  UNL1        0.0001
     18 C          17.5060  -25.2843   20.5074 C.ar    1  UNL1        0.0000
     19 C          18.7750  -25.6292   20.0778 C.ar    1  UNL1        0.0001
     20 C          19.3090  -25.0386   18.9507 C.ar    1  UNL1        0.0017
     21 C          21.7346  -18.3824   15.0052 C.3     1  UNL1        0.4187
     22 F          20.7862  -17.5274   15.5767 F       1  UNL1       -0.1659
     23 F          22.8940  -18.3828   15.7880 F       1  UNL1       -0.1659
     24 F          22.0436  -17.9401   13.7144 F       1  UNL1       -0.1659
     25 C          14.5734  -25.8481   15.2325 C.ar    1  UNL1        0.0536
     26 C          15.2785  -24.9019   14.4843 C.ar    1  UNL1        0.0076
     27 C          16.6361  -24.7572   14.6640 C.ar    1  UNL1        0.0377
     28 C          17.3071  -25.5592   15.5799 C.ar    1  UNL1        0.1472
     29 C          16.6101  -26.5057   16.3222 C.ar    1  UNL1        0.0377
     30 C          15.2515  -26.6521   16.1525 C.ar    1  UNL1        0.0076
     31 N          12.6074  -27.1931   14.6752 N.am    1  UNL1       -0.2932
     32 C          13.1172  -26.0022   15.0474 C.2     1  UNL1        0.2462
     33 O          12.3774  -25.0550   15.2307 O.2     1  UNL1       -0.2701
     34 H          13.2064  -27.9603   14.5268 H       1  UNL1        0.1502
     35 C          11.1621  -27.3462   14.4916 C.3     1  UNL1        0.1722
     36 C          10.8960  -28.1276   13.2307 C.2     1  UNL1        0.3350
     37 O           9.8091  -28.0750   12.7055 O.2     1  UNL1       -0.2483
     38 O          11.8663  -28.8819   12.6912 O.3     1  UNL1       -0.4474
     39 C          11.8384  -30.3029   12.9880 C.3     1  UNL1        0.2086
     40 C          13.1223  -30.6960   13.7216 C.3     1  UNL1        0.0513
     41 C          10.5721  -28.0939   15.6890 C.3     1  UNL1        0.0427
     42 C          11.7063  -28.6217   16.5698 C.3     1  UNL1        0.1118
     43 C          11.6995  -27.8919   17.8883 C.2     1  UNL1        0.3170
     44 O          11.0436  -26.8856   18.0184 O.2     1  UNL1       -0.2501
     45 O          12.4221  -28.3601   18.9182 O.3     1  UNL1       -0.4485
     46 C          14.3729  -27.1939   19.7924 C.3     1  UNL1        0.0513
     47 C          12.8605  -27.3935   19.9090 C.3     1  UNL1        0.2086
@<TRIPOS>BOND
     1    46    47    1
     2    47    45    1
     3    45    43    1
     4    43    44    2
     5    43    42    1
     6    42    41    1
     7    41    35    1
     8    35    36    1
     9    35    31    1
    10    36    37    2
    11    36    38    1
    12    38    39    1
    13    39    40    1
    14    31    32   am
    15    32    33    2
    16    32    25    1
    17    25    30   ar
    18    25    26   ar
    19    26    27   ar
    20    27    28   ar
    21    28    29   ar
    22    28     1    1
    23    29    30   ar
    24     1     2    1
    25     2    11   ar
    26     2     3   ar
    27     3     4   ar
    28     3    15    1
    29     4     5   ar
    30     5    10   ar
    31     5     6   ar
    32     6     7   ar
    33     7     8   ar
    34     7    21    1
    35     8     9   ar
    36     9    10   ar
    37     9    12    1
    38    10    11   ar
    39    21    22    1
    40    21    23    1
    41    21    24    1
    42    15    20   ar
    43    15    16   ar
    44    16    17   ar
    45    17    18   ar
    46    18    19   ar
    47    19    20   ar
    48    31    34    1
    49    12    13    1
    50    12    14    1
#	Name:			ZINC05724358
#	Creating user name:	trannguyen
#	Creation time:		Wed Dec  7 14:36:20 2022


#	Modifying user name:	trannguyen
#	Modification time:	Wed Dec  7 14:36:20 2022

@<TRIPOS>MOLECULE
ZINC05724358
 40 42 0 0 0
SMALL
GASTEIGER

@<TRIPOS>ATOM
      1 C          18.0944  -25.4126   13.2207 C.2     1  UNL1        0.2018
      2 O          18.9776  -26.1286   13.6493 O.2     1  UNL1       -0.2860
      3 C          16.8079  -25.4644   13.7897 C.ar    1  UNL1        0.0844
      4 C          15.7935  -24.5085   13.7865 C.ar    1  UNL1        0.0704
      5 N          14.6784  -24.8062   14.3951 N.ar    1  UNL1       -0.2282
      6 C          14.5058  -25.9746   14.9988 C.ar    1  UNL1        0.1633
      7 S          16.0244  -26.7708   14.7245 S.2     1  UNL1       -0.0486
      8 C          15.9779  -23.1779   13.1036 C.3     1  UNL1        0.0528
      9 N          13.4007  -26.4380   15.6783 N.pl3   1  UNL1       -0.2932
     10 H          12.6630  -25.8234   15.8957 H       1  UNL1        0.1541
     11 C          13.3269  -27.7809   16.0591 C.ar    1  UNL1        0.0416
     12 C          13.9507  -28.2095   17.2242 C.ar    1  UNL1       -0.0090
     13 C          13.8798  -29.5377   17.5949 C.ar    1  UNL1       -0.0031
     14 C          13.1800  -30.4390   16.8134 C.ar    1  UNL1       -0.0006
     15 C          12.5580  -30.0158   15.6533 C.ar    1  UNL1       -0.0031
     16 C          12.6294  -28.6897   15.2738 C.ar    1  UNL1       -0.0097
     17 C          11.9507  -28.2292   14.0095 C.3     1  UNL1        0.0201
     18 C          12.9887  -28.0947   12.8935 C.3     1  UNL1        0.0044
     19 C          10.8897  -29.2520   13.5986 C.3     1  UNL1        0.0044
     20 C          11.2849  -26.8733   14.2529 C.3     1  UNL1        0.0044
     21 C          14.7092  -27.2271   18.0791 C.3     1  UNL1        0.0276
     22 C          14.2252  -27.3310   19.5268 C.3     1  UNL1        0.0051
     23 C          19.3083  -23.3807   12.5471 C.2     1  UNL1       -0.0326
     24 O          19.6607  -22.5168   11.7799 O.co2   1  UNL1       -0.8699
     25 C          18.3762  -24.4688   12.0801 C.2     1  UNL1        0.0304
     26 N          19.0779  -22.7483   14.9115 N.am    1  UNL1       -0.2819
     27 C          19.7952  -23.3704   13.9550 C.2     1  UNL1        0.2341
     28 O          20.8380  -23.9224   14.2406 O.2     1  UNL1       -0.2711
     29 H          18.1581  -22.4525   14.7229 H       1  UNL1        0.1551
     30 C          19.4241  -23.4292   17.2013 C.ar    1  UNL1       -0.0090
     31 C          19.9850  -23.2059   18.4434 C.ar    1  UNL1       -0.0031
     32 C          20.7514  -22.0765   18.6647 C.ar    1  UNL1       -0.0006
     33 C          20.9642  -21.1697   17.6420 C.ar    1  UNL1       -0.0031
     34 C          20.4109  -21.3893   16.3962 C.ar    1  UNL1       -0.0093
     35 C          19.6397  -22.5231   16.1704 C.ar    1  UNL1        0.0424
     36 C          20.6433  -20.4009   15.2827 C.3     1  UNL1        0.0236
     37 C          20.5514  -18.9776   15.8366 C.3     1  UNL1        0.0047
     38 C          22.0326  -20.6260   14.6828 C.3     1  UNL1        0.0047
     39 C          17.2483  -24.5113   17.6959 C.3     1  UNL1        0.0051
     40 C          18.5834  -24.6570   16.9628 C.3     1  UNL1        0.0276
@<TRIPOS>UNITY_ATOM_ATTR
24 1
charge -1
@<TRIPOS>BOND
     1    39    40    1
     2    40    30    1
     3    30    35   ar
     4    30    31   ar
     5    31    32   ar
     6    32    33   ar
     7    33    34   ar
     8    34    35   ar
     9    34    36    1
    10    35    26    1
    11    26    27   am
    12    27    28    2
    13    27    23    1
    14    23    25    2
    15    23    24    1
    16    25     1    1
    17     1     3    1
    18     1     2    2
    19     3     7   ar
    20     3     4   ar
    21     4     5   ar
    22     4     8    1
    23     5     6   ar
    24     6     7   ar
    25     6     9    1
    26     9    11    1
    27    11    16   ar
    28    11    12   ar
    29    12    13   ar
    30    12    21    1
    31    13    14   ar
    32    14    15   ar
    33    15    16   ar
    34    16    17    1
    35    17    18    1
    36    17    19    1
    37    17    20    1
    38    21    22    1
    39    36    37    1
    40    36    38    1
    41    26    29    1
    42     9    10    1
#	Name:			ZINC05731846
#	Creating user name:	trannguyen
#	Creation time:		Wed Dec  7 14:36:19 2022


#	Modifying user name:	trannguyen
#	Modification time:	Wed Dec  7 14:36:19 2022

@<TRIPOS>MOLECULE
ZINC05731846
 40 43 0 0 0
SMALL
GASTEIGER

@<TRIPOS>ATOM
      1 C          23.2411  -25.2812   13.6802 C.3     1  UNL1        0.1818
      2 N          23.4156  -25.4960   12.2415 N.pl3   1  UNL1       -0.3089
      3 H          23.0644  -24.8376   11.5993 H       1  UNL1        0.1487
      4 N          23.1424  -29.7740   10.4668 N.ar    1  UNL1       -0.2147
      5 C          24.0731  -28.8543   10.8629 C.ar    1  UNL1        0.1859
      6 C          23.3488  -27.7386   11.3176 C.ar    1  UNL1        0.1711
      7 C          24.0729  -26.6226   11.7861 C.ar    1  UNL1        0.1544
      8 N          25.3985  -26.6796   11.7851 N.ar    1  UNL1       -0.1975
      9 C          26.0403  -27.7573   11.3501 C.ar    1  UNL1        0.2163
     10 N          25.4025  -28.8242   10.8980 N.ar    1  UNL1       -0.1934
     11 N          27.4241  -27.7647   11.3707 N.pl3   1  UNL1       -0.3274
     12 N          22.0402  -28.0119   11.1764 N.ar    1  UNL1       -0.1243
     13 N          21.8846  -29.1919   10.6858 N.ar    1  UNL1       -0.0624
     14 H          27.9156  -26.9795   11.7038 H       1  UNL1        0.1452
     15 H          27.9169  -28.5553   11.0522 H       1  UNL1        0.1452
     16 C          23.4068  -31.1073    9.9204 C.3     1  UNL1        0.1309
     17 C          23.6175  -32.0962   11.0687 C.3     1  UNL1        0.0265
     18 C          24.5708  -33.7729    9.4804 C.3     1  UNL1        0.0001
     19 C          23.4941  -33.5264   10.5391 C.3     1  UNL1        0.0021
     20 C          21.8662  -25.7393   14.0934 C.2     1  UNL1        0.3359
     21 O          21.6967  -26.2363   15.1816 O.2     1  UNL1       -0.2482
     22 O          20.8299  -25.5953   13.2525 O.3     1  UNL1       -0.4424
     23 C          19.5301  -26.0359   13.7265 C.3     1  UNL1        0.2351
     24 C          18.4476  -25.2838   12.9962 C.ar    1  UNL1        0.0213
     25 C          17.2292  -25.0576   13.6088 C.ar    1  UNL1       -0.0007
     26 C          16.2381  -24.3630   12.9408 C.ar    1  UNL1       -0.0002
     27 C          16.4615  -23.9043   11.6561 C.ar    1  UNL1       -0.0000
     28 C          17.6779  -24.1355   11.0413 C.ar    1  UNL1       -0.0002
     29 C          18.6710  -24.8251   11.7114 C.ar    1  UNL1       -0.0007
     30 C          23.3991  -23.7925   13.9963 C.3     1  UNL1        0.1405
     31 C          23.5065  -23.0145   12.7103 C.2     1  UNL1        0.3196
     32 O          24.5775  -22.8962   12.1634 O.2     1  UNL1       -0.2500
     33 O          22.4126  -22.4528   12.1722 O.3     1  UNL1       -0.4434
     34 C          21.3186  -22.1430   13.0753 C.3     1  UNL1        0.2350
     35 C          21.5102  -20.7591   13.6403 C.ar    1  UNL1        0.0213
     36 C          21.6565  -20.5833   15.0035 C.ar    1  UNL1       -0.0007
     37 C          21.8372  -19.3143   15.5212 C.ar    1  UNL1       -0.0002
     38 C          21.8612  -18.2202   14.6767 C.ar    1  UNL1       -0.0000
     39 C          21.7091  -18.3956   13.3139 C.ar    1  UNL1       -0.0002
     40 C          21.5338  -19.6650   12.7957 C.ar    1  UNL1       -0.0007
@<TRIPOS>BOND
     1    18    19    1
     2    19    17    1
     3    17    16    1
     4    16     4    1
     5     4    13   ar
     6     4     5   ar
     7     5    10   ar
     8     5     6   ar
     9     6     7   ar
    10     6    12   ar
    11     7     8   ar
    12     7     2    1
    13     8     9   ar
    14     9    10   ar
    15     9    11    1
    16     2     1    1
    17     1    30    1
    18     1    20    1
    19    30    31    1
    20    31    32    2
    21    31    33    1
    22    33    34    1
    23    34    35    1
    24    35    40   ar
    25    35    36   ar
    26    36    37   ar
    27    37    38   ar
    28    38    39   ar
    29    39    40   ar
    30    20    21    2
    31    20    22    1
    32    22    23    1
    33    23    24    1
    34    24    29   ar
    35    24    25   ar
    36    25    26   ar
    37    26    27   ar
    38    27    28   ar
    39    28    29   ar
    40    12    13   ar
    41    11    14    1
    42    11    15    1
    43     2     3    1
#	Name:			ZINC05742097
#	Creating user name:	trannguyen
#	Creation time:		Wed Dec  7 14:36:20 2022


#	Modifying user name:	trannguyen
#	Modification time:	Wed Dec  7 14:36:20 2022

@<TRIPOS>MOLECULE
ZINC05742097
 44 46 0 0 0
SMALL
GASTEIGER

@<TRIPOS>ATOM
      1 C          14.1453  -26.1177   15.1244 C.ar    1  UNL1        0.0534
      2 C          14.9057  -27.2033   15.5688 C.ar    1  UNL1        0.0058
      3 C          16.2609  -27.0596   15.7610 C.ar    1  UNL1        0.0148
      4 C          16.8745  -25.8349   15.5131 C.ar    1  UNL1        0.0494
      5 C          16.1192  -24.7507   15.0755 C.ar    1  UNL1        0.0148
      6 C          14.7644  -24.8894   14.8765 C.ar    1  UNL1        0.0058
      7 N          12.1521  -27.4972   14.7982 N.am    1  UNL1       -0.2932
      8 C          12.6921  -26.2682   14.9178 C.2     1  UNL1        0.2462
      9 O          11.9818  -25.2833   14.8555 O.2     1  UNL1       -0.2701
     10 H          12.7272  -28.2947   14.8488 H       1  UNL1        0.1502
     11 C          10.7092  -27.6466   14.5931 C.3     1  UNL1        0.1722
     12 C          10.4545  -28.2480   13.2349 C.2     1  UNL1        0.3350
     13 O           9.3993  -28.0573   12.6781 O.2     1  UNL1       -0.2483
     14 O          11.4000  -28.9952   12.6439 O.3     1  UNL1       -0.4474
     15 C          11.3410  -30.4290   12.8653 C.3     1  UNL1        0.2086
     16 C          12.7390  -30.9509   13.2032 C.3     1  UNL1        0.0513
     17 C          10.1327  -28.5639   15.6734 C.3     1  UNL1        0.0427
     18 C          11.1681  -28.7583   16.7830 C.3     1  UNL1        0.1118
     19 C          10.8426  -27.8474   17.9388 C.2     1  UNL1        0.3170
     20 O          11.3241  -26.7405   17.9897 O.2     1  UNL1       -0.2501
     21 O          10.0180  -28.2661   18.9116 O.3     1  UNL1       -0.4485
     22 C           9.0058  -28.1103   21.1210 C.3     1  UNL1        0.0513
     23 C           9.9369  -27.4442   20.1059 C.3     1  UNL1        0.2086
     24 N          18.2454  -25.6927   15.7089 N.pl3   1  UNL1       -0.2966
     25 H          18.8529  -26.4378   15.4965 H       1  UNL1        0.1537
     26 C          18.7542  -24.5041   16.2021 C.ar    1  UNL1        0.1564
     27 C          18.7036  -24.2393   17.5912 C.ar    1  UNL1        0.1883
     28 N          19.1864  -23.1085   18.0737 N.ar    1  UNL1       -0.2347
     29 C          19.7293  -22.2130   17.2481 C.ar    1  UNL1        0.0992
     30 C          20.2453  -20.9975   17.7378 C.ar    1  UNL1        0.0206
     31 C          20.7882  -20.0985   16.8738 C.ar    1  UNL1        0.0055
     32 C          20.8386  -20.3589   15.5045 C.ar    1  UNL1        0.0730
     33 C          20.3460  -21.5198   14.9932 C.ar    1  UNL1        0.0245
     34 C          19.7762  -22.4747   15.8530 C.ar    1  UNL1        0.1003
     35 N          19.2848  -23.6232   15.3744 N.ar    1  UNL1       -0.2273
     36 C          21.4482  -19.3393   14.5773 C.3     1  UNL1        0.4186
     37 F          20.5509  -18.2821   14.3920 F       1  UNL1       -0.1659
     38 F          22.6347  -18.8516   15.1356 F       1  UNL1       -0.1659
     39 F          21.7251  -19.9377   13.3433 F       1  UNL1       -0.1659
     40 C          18.1071  -25.2346   18.5080 C.2     1  UNL1        0.3620
     41 O          18.7265  -26.2370   18.8024 O.2     1  UNL1       -0.2431
     42 O          16.8768  -25.0293   19.0167 O.3     1  UNL1       -0.4443
     43 C          16.6247  -25.5320   20.3555 C.3     1  UNL1        0.2089
     44 C          15.4654  -26.5297   20.3157 C.3     1  UNL1        0.0513
@<TRIPOS>BOND
     1    22    23    1
     2    23    21    1
     3    21    19    1
     4    19    20    2
     5    19    18    1
     6    18    17    1
     7    17    11    1
     8    11    12    1
     9    11     7    1
    10    12    13    2
    11    12    14    1
    12    14    15    1
    13    15    16    1
    14     7     8   am
    15     8     9    2
    16     8     1    1
    17     1     6   ar
    18     1     2   ar
    19     2     3   ar
    20     3     4   ar
    21     4     5   ar
    22     4    24    1
    23     5     6   ar
    24    24    26    1
    25    26    35   ar
    26    26    27   ar
    27    27    28   ar
    28    27    40    1
    29    28    29   ar
    30    29    34   ar
    31    29    30   ar
    32    30    31   ar
    33    31    32   ar
    34    32    33   ar
    35    32    36    1
    36    33    34   ar
    37    34    35   ar
    38    36    37    1
    39    36    38    1
    40    36    39    1
    41    40    41    2
    42    40    42    1
    43    42    43    1
    44    43    44    1
    45     7    10    1
    46    24    25    1
#	Name:			ZINC05839992
#	Creating user name:	trannguyen
#	Creation time:		Wed Dec  7 14:36:19 2022


#	Modifying user name:	trannguyen
#	Modification time:	Wed Dec  7 14:36:19 2022

@<TRIPOS>MOLECULE
ZINC05839992
 47 50 0 0 0
SMALL
GASTEIGER

@<TRIPOS>ATOM
      1 N          20.0171  -25.8174   17.7395 N.am    1  UNL1       -0.2604
      2 C          20.9561  -26.6412   18.2456 C.2     1  UNL1        0.3078
      3 O          21.9658  -26.1802   18.7417 O.2     1  UNL1       -0.2522
      4 N          20.7757  -27.9762   18.2017 N.am    1  UNL1       -0.2681
      5 H          20.0034  -28.3531   17.7214 H       1  UNL1        0.1564
      6 C          21.6863  -28.8265   18.8390 C.ar    1  UNL1        0.0516
      7 C          22.6569  -29.4876   18.0979 C.ar    1  UNL1        0.0147
      8 C          23.5572  -30.3225   18.7304 C.ar    1  UNL1        0.0013
      9 C          23.4861  -30.5085   20.0988 C.ar    1  UNL1        0.0001
     10 C          22.5174  -29.8558   20.8389 C.ar    1  UNL1        0.0013
     11 C          21.6175  -29.0156   20.2131 C.ar    1  UNL1        0.0147
     12 C          18.8004  -26.3730   17.1418 C.3     1  UNL1        0.1165
     13 C          17.6428  -25.3916   17.3361 C.3     1  UNL1        0.1165
     14 N          14.3996  -27.0011   16.6954 N.am    1  UNL1       -0.2681
     15 C          15.5444  -26.3144   16.5100 C.2     1  UNL1        0.3077
     16 O          15.8067  -25.8540   15.4157 O.2     1  UNL1       -0.2522
     17 N          16.3984  -26.1380   17.5376 N.am    1  UNL1       -0.2611
     18 H          14.1574  -27.3207   17.5946 H       1  UNL1        0.1564
     19 C          11.8856  -27.7710   13.4635 C.ar    1  UNL1        0.0001
     20 C          13.0341  -28.5212   13.6382 C.ar    1  UNL1        0.0013
     21 C          13.8695  -28.2684   14.7087 C.ar    1  UNL1        0.0147
     22 C          13.5551  -27.2598   15.6099 C.ar    1  UNL1        0.0516
     23 C          12.3981  -26.5121   15.4348 C.ar    1  UNL1        0.0147
     24 C          11.5695  -26.7663   14.3594 C.ar    1  UNL1        0.0013
     25 C          16.0823  -26.6927   18.8562 C.3     1  UNL1        0.1112
     26 C          16.4855  -25.6917   19.9407 C.3     1  UNL1        0.1269
     27 C          17.6933  -26.1746   20.6298 C.1     1  UNL1        0.0750
     28 N          18.6254  -26.5472   21.1616 N.1     1  UNL1       -0.1958
     29 C          20.2131  -24.3664   17.7871 C.3     1  UNL1        0.1169
     30 C          21.1358  -23.9386   16.6439 C.3     1  UNL1        0.1212
     31 N          20.4393  -22.9741   15.7891 N.am    1  UNL1       -0.2413
     32 C          19.6782  -23.4079   14.7649 C.2     1  UNL1        0.3115
     33 O          19.4932  -24.5992   14.6069 O.2     1  UNL1       -0.2519
     34 N          19.1223  -22.5212   13.9157 N.am    1  UNL1       -0.2679
     35 H          19.3577  -21.5672   13.9765 H       1  UNL1        0.1564
     36 C          20.5642  -21.6024   16.0360 C.ar    1  UNL1        0.0553
     37 C          19.7524  -20.9887   16.9810 C.ar    1  UNL1        0.0150
     38 C          19.8824  -19.6358   17.2268 C.ar    1  UNL1        0.0013
     39 C          20.8115  -18.8902   16.5246 C.ar    1  UNL1        0.0001
     40 C          21.6170  -19.4972   15.5786 C.ar    1  UNL1        0.0013
     41 C          21.4962  -20.8508   15.3325 C.ar    1  UNL1        0.0150
     42 C          18.2104  -22.9565   12.9476 C.ar    1  UNL1        0.0516
     43 C          16.8629  -23.0721   13.2630 C.ar    1  UNL1        0.0147
     44 C          15.9646  -23.4970   12.3039 C.ar    1  UNL1        0.0013
     45 C          16.4072  -23.8172   11.0336 C.ar    1  UNL1        0.0001
     46 C          17.7492  -23.7086   10.7179 C.ar    1  UNL1        0.0013
     47 C          18.6518  -23.2792   11.6712 C.ar    1  UNL1        0.0147
@<TRIPOS>BOND
     1    19    24   ar
     2    19    20   ar
     3    20    21   ar
     4    21    22   ar
     5    22    23   ar
     6    22    14    1
     7    23    24   ar
     8    14    15   am
     9    15    16    2
    10    15    17   am
    11    17    25    1
    12    17    13    1
    13    25    26    1
    14    26    27    1
    15    27    28    3
    16    13    12    1
    17    12     1    1
    18     1    29    1
    19     1     2   am
    20    29    30    1
    21    30    31    1
    22    31    36    1
    23    31    32   am
    24    36    41   ar
    25    36    37   ar
    26    37    38   ar
    27    38    39   ar
    28    39    40   ar
    29    40    41   ar
    30    32    33    2
    31    32    34   am
    32    34    42    1
    33    42    47   ar
    34    42    43   ar
    35    43    44   ar
    36    44    45   ar
    37    45    46   ar
    38    46    47   ar
    39     2     3    2
    40     2     4   am
    41     4     6    1
    42     6    11   ar
    43     6     7   ar
    44     7     8   ar
    45     8     9   ar
    46     9    10   ar
    47    10    11   ar
    48    14    18    1
    49    34    35    1
    50     4     5    1
#	Name:			ZINC05848101
#	Creating user name:	trannguyen
#	Creation time:		Wed Dec  7 14:36:19 2022


#	Modifying user name:	trannguyen
#	Modification time:	Wed Dec  7 14:36:19 2022

@<TRIPOS>MOLECULE
ZINC05848101
 18 20 0 0 0
SMALL
GASTEIGER

@<TRIPOS>ATOM
      1 C          20.5335  -21.0897   14.3480 C.ar    1  UNL1        0.2176
      2 N          20.7078  -20.7767   15.6361 N.ar    1  UNL1       -0.2279
      3 C          21.1976  -19.5796   15.8978 C.ar    1  UNL1        0.0520
      4 N          21.9567  -19.1119   16.8564 N.ar    1  UNL1       -0.1472
      5 N          22.5637  -18.0404   16.4933 N.ar    1  UNL1       -0.0792
      6 N          22.2614  -17.5964   15.3717 N.ar    1  UNL1       -0.3131
      7 C          21.1953  -18.4554   14.8723 C.2     1  UNL1       -0.1227
      8 C          21.4184  -19.0824   13.5312 C.ar    1  UNL1       -0.0136
      9 N          21.0160  -20.3262   13.3612 N.ar    1  UNL1       -0.2349
     10 N          22.0112  -18.3972   12.5299 N.pl3   1  UNL1       -0.3687
     11 H          22.3052  -17.4690   12.6753 H       1  UNL1        0.1412
     12 H          22.1494  -18.8260   11.6545 H       1  UNL1        0.1412
     13 C          18.7438  -22.1943   13.0476 C.3     1  UNL1        0.1257
     14 C          18.9885  -23.3109   12.0199 C.3     1  UNL1        0.1637
     15 O          19.1867  -24.5474   12.7094 O.3     1  UNL1       -0.3501
     16 C          20.3354  -24.5655   13.5604 C.3     1  UNL1        0.1637
     17 C          20.1632  -23.5142   14.6628 C.3     1  UNL1        0.1257
     18 N          19.8395  -22.2261   14.0293 N.pl3   1  UNL1       -0.2731
@<TRIPOS>UNITY_ATOM_ATTR
7 1
charge -1
@<TRIPOS>BOND
     1    13    18    1
     2    13    14    1
     3    14    15    1
     4    15    16    1
     5    16    17    1
     6    17    18    1
     7    18     1    1
     8     1     9   ar
     9     1     2   ar
    10     2     3   ar
    11     3     7   ar
    12     3     4   ar
    13     4     5   ar
    14     5     6   ar
    15     6     7   ar
    16     7     8   ar
    17     8     9   ar
    18     8    10    1
    19    10    11    1
    20    10    12    1
#	Name:			ZINC05889125
#	Creating user name:	trannguyen
#	Creation time:		Wed Dec  7 14:36:19 2022


#	Modifying user name:	trannguyen
#	Modification time:	Wed Dec  7 14:36:19 2022

@<TRIPOS>MOLECULE
ZINC05889125
 41 43 0 0 0
SMALL
GASTEIGER

@<TRIPOS>ATOM
      1 C          18.9544  -26.1866   15.2825 C.2     1  UNL1        0.0417
      2 C          19.4211  -26.8141   16.5707 C.2     1  UNL1        0.0489
      3 N          19.0662  -26.8284   14.1805 N.pl3   1  UNL1       -0.2670
      4 H          18.3758  -27.4790   13.9176 H       1  UNL1        0.1697
      5 N          20.1711  -26.6049   13.3487 N.am    1  UNL1       -0.2326
      6 C          21.1342  -27.5414   13.2411 C.2     1  UNL1        0.2642
      7 O          21.0443  -28.5806   13.8663 O.2     1  UNL1       -0.2685
      8 H          20.2440  -25.7635   12.8426 H       1  UNL1        0.1730
      9 C          22.2978  -27.3059   12.3651 C.ar    1  UNL1        0.0884
     10 C          22.4352  -28.0319   11.1928 C.ar    1  UNL1        0.0076
     11 C          23.5406  -27.8004   10.3622 C.ar    1  UNL1        0.0003
     12 C          23.7094  -28.5158    9.1625 C.ar    1  UNL1        0.0000
     13 C          24.7957  -28.2726    8.3803 C.ar    1  UNL1        0.0000
     14 C          25.7473  -27.3228    8.7488 C.ar    1  UNL1        0.0000
     15 C          25.6180  -26.6116    9.9020 C.ar    1  UNL1        0.0001
     16 C          24.5094  -26.8338   10.7376 C.ar    1  UNL1        0.0030
     17 C          24.3498  -26.1150   11.9337 C.ar    1  UNL1        0.0368
     18 C          23.2667  -26.3471   12.7293 C.ar    1  UNL1        0.1380
     19 O          23.1196  -25.6488   13.8840 O.3     1  UNL1       -0.5054
     20 H          22.3774  -25.8044   14.4342 H       1  UNL1        0.2922
     21 C          19.1793  -25.8592   17.7112 C.2     1  UNL1        0.1746
     22 O          18.0689  -25.7351   18.1696 O.2     1  UNL1       -0.2913
     23 C          20.3228  -25.0593   18.2796 C.3     1  UNL1        0.0787
     24 C          19.7809  -23.7821   18.9247 C.3     1  UNL1        0.0935
     25 C          20.3722  -22.5803   18.2338 C.2     1  UNL1        0.2266
     26 O          21.3225  -22.0066   18.7223 O.2     1  UNL1       -0.2748
     27 N          19.8450  -22.1432   17.0730 N.am    1  UNL1       -0.2826
     28 H          19.0278  -22.5600   16.7157 H       1  UNL1        0.1549
     29 C          20.4592  -21.0971   16.3757 C.ar    1  UNL1        0.0730
     30 C          20.2447  -19.7812   16.7646 C.ar    1  UNL1        0.0164
     31 C          20.8567  -18.7513   16.0776 C.ar    1  UNL1        0.0014
     32 C          21.6739  -19.0286   14.9968 C.ar    1  UNL1        0.0018
     33 C          21.8848  -20.3372   14.6036 C.ar    1  UNL1        0.0254
     34 C          21.2798  -21.3722   15.2899 C.ar    1  UNL1        0.1562
     35 N          21.5058  -22.7728   14.8680 N.pl3   1  UNL1        0.0589
     36 O          21.0857  -23.1602   13.7925 O.2     1  UNL1       -0.1261
     37 O          22.1119  -23.5379   15.5965 O.2     1  UNL1       -0.1261
     38 C          18.3560  -24.8035   15.2917 C.3     1  UNL1        0.0425
     39 C          15.8895  -24.6638   14.9185 C.3     1  UNL1        0.0004
     40 C          17.2558  -24.7169   14.2320 C.3     1  UNL1        0.0057
     41 C          17.4543  -23.4530   13.3928 C.3     1  UNL1        0.0004
@<TRIPOS>BOND
     1    39    40    1
     2    40    41    1
     3    40    38    1
     4    38     1    1
     5     1     2    2
     6     1     3    1
     7     3     5    1
     8     5     6   am
     9     6     7    2
    10     6     9    1
    11     9    18   ar
    12     9    10   ar
    13    10    11   ar
    14    11    16   ar
    15    11    12   ar
    16    12    13   ar
    17    13    14   ar
    18    14    15   ar
    19    15    16   ar
    20    16    17   ar
    21    17    18   ar
    22    18    19    1
    23     2    21    1
    24    21    22    2
    25    21    23    1
    26    23    24    1
    27    24    25    1
    28    25    26    2
    29    25    27   am
    30    27    29    1
    31    29    34   ar
    32    29    30   ar
    33    30    31   ar
    34    31    32   ar
    35    32    33   ar
    36    33    34   ar
    37    34    35    1
    38    35    36    2
    39    35    37    2
    40     3     4    1
    41     5     8    1
    42    19    20    1
    43    27    28    1
#	Name:			ZINC05923493
#	Creating user name:	trannguyen
#	Creation time:		Wed Dec  7 14:36:19 2022


#	Modifying user name:	trannguyen
#	Modification time:	Wed Dec  7 14:36:19 2022

@<TRIPOS>MOLECULE
ZINC05923493
 40 43 0 0 0
SMALL
GASTEIGER

@<TRIPOS>ATOM
      1 C          18.8213  -26.1648   16.1571 C.3     1  UNL1        0.0000
      2 C          20.0706  -26.9201   15.6992 C.3     1  UNL1        0.0005
      3 C          19.7296  -28.3987   15.5035 C.3     1  UNL1        0.0098
      4 C          21.0084  -29.2336   15.5957 C.3     1  UNL1        0.0870
      5 C          21.9839  -29.7787   12.1483 C.ar    1  UNL1        0.2822
      6 N          21.8348  -31.0003   12.6014 N.ar    1  UNL1       -0.1006
      7 N          21.4884  -30.9555   13.8396 N.ar    1  UNL1       -0.1109
      8 C          21.3939  -29.7154   14.2209 C.ar    1  UNL1        0.2270
      9 O          21.7042  -28.9397   13.1637 O.2     1  UNL1       -0.4147
     10 S          22.4552  -29.3206   10.5135 S.3     1  UNL1       -0.0252
     11 C          26.5776  -27.6173   11.3332 C.ar    1  UNL1        0.0398
     12 C          25.4514  -26.8897   11.6721 C.ar    1  UNL1        0.0402
     13 C          24.1910  -27.4060   11.4235 C.ar    1  UNL1        0.1399
     14 C          24.0575  -28.6602   10.8307 C.ar    1  UNL1        0.0705
     15 C          25.1890  -29.3880   10.4913 C.ar    1  UNL1        0.0463
     16 C          26.4483  -28.8682   10.7479 C.ar    1  UNL1        0.1344
     17 O          27.5579  -29.5831   10.4208 O.3     1  UNL1       -0.5055
     18 O          23.0836  -26.6893   11.7573 O.3     1  UNL1       -0.5050
     19 H          28.4093  -29.2322   10.5940 H       1  UNL1        0.2922
     20 H          23.1737  -25.8460   12.1558 H       1  UNL1        0.2922
     21 C          18.7022  -26.2516   17.6799 C.3     1  UNL1        0.0000
     22 C          18.4641  -24.8533   18.2535 C.3     1  UNL1        0.0005
     23 C          19.6783  -24.4281   19.0816 C.3     1  UNL1        0.0098
     24 C          20.1441  -23.0426   18.6296 C.3     1  UNL1        0.0870
     25 C          20.6058  -23.1105   17.1966 C.ar    1  UNL1        0.2270
     26 N          21.6388  -23.7647   16.7523 N.ar    1  UNL1       -0.1109
     27 N          21.7365  -23.6026   15.4797 N.ar    1  UNL1       -0.1006
     28 C          20.7599  -22.8321   15.0645 C.ar    1  UNL1        0.2822
     29 O          20.0204  -22.5093   16.1424 O.2     1  UNL1       -0.4147
     30 S          20.4660  -22.3207   13.4042 S.3     1  UNL1       -0.0252
     31 C          19.0776  -23.3328   13.0135 C.ar    1  UNL1        0.0705
     32 C          17.7984  -22.7956   13.0330 C.ar    1  UNL1        0.0463
     33 C          16.7082  -23.5945   12.7246 C.ar    1  UNL1        0.1344
     34 C          16.8953  -24.9292   12.3970 C.ar    1  UNL1        0.0398
     35 C          18.1693  -25.4670   12.3768 C.ar    1  UNL1        0.0402
     36 C          19.2626  -24.6728   12.6787 C.ar    1  UNL1        0.1399
     37 O          20.5161  -25.2014   12.6532 O.3     1  UNL1       -0.5050
     38 O          15.4541  -23.0690   12.7430 O.3     1  UNL1       -0.5055
     39 H          21.2556  -24.6636   12.8576 H       1  UNL1        0.2922
     40 H          15.3272  -22.1673   12.9643 H       1  UNL1        0.2922
@<TRIPOS>BOND
     1    11    16   ar
     2    11    12   ar
     3    12    13   ar
     4    13    14   ar
     5    13    18    1
     6    14    15   ar
     7    14    10    1
     8    15    16   ar
     9    16    17    1
    10    10     5    1
    11     5     9   ar
    12     5     6   ar
    13     6     7   ar
    14     7     8   ar
    15     8     9   ar
    16     8     4    1
    17     4     3    1
    18     3     2    1
    19     2     1    1
    20     1    21    1
    21    21    22    1
    22    22    23    1
    23    23    24    1
    24    24    25    1
    25    25    29   ar
    26    25    26   ar
    27    26    27   ar
    28    27    28   ar
    29    28    29   ar
    30    28    30    1
    31    30    31    1
    32    31    36   ar
    33    31    32   ar
    34    32    33   ar
    35    33    34   ar
    36    33    38    1
    37    34    35   ar
    38    35    36   ar
    39    36    37    1
    40    17    19    1
    41    37    39    1
    42    38    40    1
    43    18    20    1
#	Name:			ZINC06005114
#	Creating user name:	trannguyen
#	Creation time:		Wed Dec  7 14:36:20 2022


#	Modifying user name:	trannguyen
#	Modification time:	Wed Dec  7 14:36:20 2022

@<TRIPOS>MOLECULE
ZINC06005114
 48 50 0 0 0
SMALL
GASTEIGER

@<TRIPOS>ATOM
      1 N          16.1879  -24.9382   15.7311 N.am    1  UNL1       -0.2801
      2 C          17.4347  -25.3591   16.0221 C.2     1  UNL1        0.2425
      3 O          18.0281  -26.0789   15.2470 O.2     1  UNL1       -0.2733
      4 H          15.7061  -24.3541   16.3604 H       1  UNL1        0.1514
      5 C          18.0914  -24.9359   17.3108 C.3     1  UNL1        0.1623
      6 N          17.4662  -25.6414   18.4322 N.am    1  UNL1       -0.2635
      7 C          16.7676  -24.9527   19.3564 C.2     1  UNL1        0.4023
      8 O          16.6564  -23.7465   19.2595 O.2     1  UNL1       -0.2264
      9 H          17.5564  -26.6186   18.5107 H       1  UNL1        0.1532
     10 O          16.1931  -25.6010   20.3870 O.3     1  UNL1       -0.4297
     11 C          16.2700  -27.0510   20.3791 C.3     1  UNL1        0.2367
     12 C          14.8946  -27.6282   20.5932 C.ar    1  UNL1        0.0213
     13 C          14.6422  -28.9493   20.2738 C.ar    1  UNL1       -0.0007
     14 C          13.3817  -29.4802   20.4748 C.ar    1  UNL1       -0.0002
     15 C          12.3712  -28.6874   20.9858 C.ar    1  UNL1       -0.0000
     16 C          12.6222  -27.3648   21.2998 C.ar    1  UNL1       -0.0002
     17 C          13.8839  -26.8353   21.1037 C.ar    1  UNL1       -0.0007
     18 C          19.5818  -25.2780   17.2600 C.3     1  UNL1        0.1385
     19 C          20.3853  -24.0079   17.1497 C.2     1  UNL1        0.3195
     20 O          21.4947  -23.9518   17.6249 O.2     1  UNL1       -0.2500
     21 O          19.8685  -22.9391   16.5235 O.3     1  UNL1       -0.4434
     22 C          19.9186  -21.6723   17.2313 C.3     1  UNL1        0.2350
     23 C          20.3721  -20.5877   16.2886 C.ar    1  UNL1        0.0213
     24 C          20.4328  -19.2763   16.7217 C.ar    1  UNL1       -0.0007
     25 C          20.8535  -18.2820   15.8582 C.ar    1  UNL1       -0.0002
     26 C          21.2039  -18.5977   14.5589 C.ar    1  UNL1       -0.0000
     27 C          21.1378  -19.9082   14.1241 C.ar    1  UNL1       -0.0002
     28 C          20.7222  -20.9032   14.9891 C.ar    1  UNL1       -0.0007
     29 C          15.5494  -25.3497   14.4784 C.3     1  UNL1        0.2498
     30 N          14.1370  -25.6498   14.7258 N.am    1  UNL1       -0.2815
     31 C          13.7456  -26.9215   14.9396 C.2     1  UNL1        0.2235
     32 O          14.5627  -27.8177   14.9273 O.2     1  UNL1       -0.2751
     33 H          13.4737  -24.9223   14.7359 H       1  UNL1        0.1514
     34 C          12.2926  -27.2302   15.1940 C.3     1  UNL1        0.0765
     35 C          12.1461  -28.0503   16.4925 C.3     1  UNL1        0.0082
     36 C          11.0021  -29.0488   16.1831 C.3     1  UNL1        0.0005
     37 C          11.2643  -29.4223   14.7030 C.3     1  UNL1        0.0005
     38 C          11.7319  -28.1018   14.0567 C.3     1  UNL1        0.0082
     39 C          10.5488  -27.3966   13.3905 C.3     1  UNL1        0.0005
     40 C          12.8248  -28.3813   13.0230 C.3     1  UNL1        0.0005
     41 C          13.4432  -28.8011   16.8008 C.3     1  UNL1        0.0005
     42 C          11.7623  -27.1397   17.6605 C.3     1  UNL1        0.0005
     43 C          15.6570  -24.2351   13.4699 C.2     1  UNL1        0.3547
     44 O          15.0460  -23.2065   13.6389 O.2     1  UNL1       -0.2463
     45 O          16.4315  -24.3851   12.3839 O.3     1  UNL1       -0.4500
     46 C          18.3925  -23.1834   13.1846 C.3     1  UNL1        0.0473
     47 C          17.3477  -23.3023   12.0731 C.3     1  UNL1        0.1692
     48 C          18.0479  -23.5923   10.7440 C.3     1  UNL1        0.0473
@<TRIPOS>BOND
     1    46    47    1
     2    47    48    1
     3    47    45    1
     4    45    43    1
     5    43    44    2
     6    43    29    1
     7    29    30    1
     8    29     1    1
     9    30    31   am
    10    31    32    2
    11    31    34    1
    12    34    38    1
    13    34    35    1
    14    35    36    1
    15    35    41    1
    16    35    42    1
    17    36    37    1
    18    37    38    1
    19    38    39    1
    20    38    40    1
    21     1     2   am
    22     2     3    2
    23     2     5    1
    24     5    18    1
    25     5     6    1
    26    18    19    1
    27    19    20    2
    28    19    21    1
    29    21    22    1
    30    22    23    1
    31    23    28   ar
    32    23    24   ar
    33    24    25   ar
    34    25    26   ar
    35    26    27   ar
    36    27    28   ar
    37     6     7   am
    38     7     8    2
    39     7    10    1
    40    10    11    1
    41    11    12    1
    42    12    17   ar
    43    12    13   ar
    44    13    14   ar
    45    14    15   ar
    46    15    16   ar
    47    16    17   ar
    48    30    33    1
    49     1     4    1
    50     6     9    1
#	Name:			ZINC06041023
#	Creating user name:	trannguyen
#	Creation time:		Wed Dec  7 14:36:19 2022


#	Modifying user name:	trannguyen
#	Modification time:	Wed Dec  7 14:36:19 2022

@<TRIPOS>MOLECULE
ZINC06041023
 43 45 0 0 0
SMALL
GASTEIGER

@<TRIPOS>ATOM
      1 C          19.7689  -24.6080   16.9490 C.3     1  UNL1        0.2045
      2 C          19.9034  -26.1291   17.0571 C.3     1  UNL1        0.2429
      3 C          18.9394  -26.7908   16.0675 C.3     1  UNL1        0.2552
      4 C          17.5147  -26.3109   16.3611 C.3     1  UNL1        0.2626
      5 C          17.4723  -24.7828   16.2799 C.3     1  UNL1        0.2677
      6 O          18.4138  -24.2318   17.2030 O.3     1  UNL1       -0.3264
      7 N          17.8139  -24.3561   14.9206 N.ar    1  UNL1       -0.1991
      8 C          16.8463  -24.2638   13.9912 C.ar    1  UNL1        0.1995
      9 S          15.2320  -24.6465   14.4140 S.2     1  UNL1       -0.0096
     10 N          17.1277  -23.8749   12.7335 N.ar    1  UNL1       -0.2071
     11 C          18.3959  -23.5704   12.3887 C.ar    1  UNL1        0.2939
     12 O          18.6581  -23.2176   11.2537 O.2     1  UNL1       -0.2639
     13 C          19.4541  -23.6693   13.3981 C.ar    1  UNL1        0.1404
     14 N          19.1441  -24.0546   14.6051 N.ar    1  UNL1       -0.1646
     15 N          16.1285  -23.7880   11.8061 N.pl3   1  UNL1       -0.2934
     16 H          15.2029  -24.0102   12.0575 H       1  UNL1        0.1628
     17 H          16.3340  -23.5032   10.8863 H       1  UNL1        0.1628
     18 C          20.8809  -23.3367   13.0447 C.3     1  UNL1        0.0789
     19 C          21.1925  -21.9297   13.4853 C.ar    1  UNL1       -0.0158
     20 C          21.8841  -21.7123   14.6628 C.ar    1  UNL1       -0.0008
     21 C          22.1759  -20.4237   15.0660 C.ar    1  UNL1        0.0366
     22 C          21.7645  -19.3467   14.2943 C.ar    1  UNL1        0.1387
     23 C          21.0658  -19.5672   13.1162 C.ar    1  UNL1        0.0366
     24 C          20.7814  -20.8580   12.7145 C.ar    1  UNL1       -0.0008
     25 O          22.0459  -18.0779   14.6914 O.3     1  UNL1       -0.4714
     26 C          22.0537  -17.8249   16.0979 C.3     1  UNL1        0.2525
     27 C          20.6850  -23.9404   17.9766 C.3     1  UNL1        0.2416
     28 O          20.0246  -22.7695   18.5252 O.3     1  UNL1       -0.4457
     29 C          19.6777  -20.5550   17.4900 C.3     1  UNL1        0.1212
     30 C          20.5355  -21.5723   18.1975 C.2     1  UNL1        0.3176
     31 O          21.6831  -21.3101   18.4698 O.2     1  UNL1       -0.2501
     32 O          16.6016  -26.8743   15.3828 O.3     1  UNL1       -0.4436
     33 C          15.8224  -27.8887   15.7897 C.2     1  UNL1        0.3177
     34 O          16.0891  -29.0222   15.4676 O.2     1  UNL1       -0.2501
     35 C          14.6149  -27.6137   16.6484 C.3     1  UNL1        0.1212
     36 O          19.3064  -26.4223   14.7118 O.3     1  UNL1       -0.4444
     37 C          19.7644  -27.4020   13.9168 C.2     1  UNL1        0.3177
     38 O          19.4294  -28.5461   14.1137 O.2     1  UNL1       -0.2501
     39 C          20.6963  -27.0751   12.7786 C.3     1  UNL1        0.1212
     40 O          21.2659  -26.5205   16.7427 O.3     1  UNL1       -0.4456
     41 C          21.7966  -27.5170   17.4687 C.2     1  UNL1        0.3176
     42 O          22.3079  -27.2798   18.5374 O.2     1  UNL1       -0.2501
     43 C          21.7547  -28.9316   16.9508 C.3     1  UNL1        0.1212
@<TRIPOS>BOND
     1    29    30    1
     2    30    31    2
     3    30    28    1
     4    28    27    1
     5    27     1    1
     6     1     6    1
     7     1     2    1
     8     2     3    1
     9     2    40    1
    10     3     4    1
    11     3    36    1
    12     4     5    1
    13     4    32    1
    14     5     6    1
    15     5     7    1
    16     7    14   ar
    17     7     8   ar
    18     8     9    2
    19     8    10   ar
    20    10    11   ar
    21    10    15    1
    22    11    12    2
    23    11    13   ar
    24    13    14   ar
    25    13    18    1
    26    18    19    1
    27    19    24   ar
    28    19    20   ar
    29    20    21   ar
    30    21    22   ar
    31    22    23   ar
    32    22    25    1
    33    23    24   ar
    34    25    26    1
    35    32    33    1
    36    33    34    2
    37    33    35    1
    38    36    37    1
    39    37    38    2
    40    37    39    1
    41    40    41    1
    42    41    42    2
    43    41    43    1
    44    15    16    1
    45    15    17    1
#	Name:			ZINC06041760
#	Creating user name:	trannguyen
#	Creation time:		Wed Dec  7 14:36:19 2022


#	Modifying user name:	trannguyen
#	Modification time:	Wed Dec  7 14:36:19 2022

@<TRIPOS>MOLECULE
ZINC06041760
 43 46 0 0 0
SMALL
GASTEIGER

@<TRIPOS>ATOM
      1 C          13.5554  -28.0480   14.4091 C.ar    1  UNL1        0.1760
      2 C          13.1612  -28.8301   15.4837 C.ar    1  UNL1        0.0767
      3 C          13.6067  -28.5314   16.7599 C.ar    1  UNL1        0.1399
      4 C          14.4628  -27.4385   16.9631 C.ar    1  UNL1        0.0758
      5 C          14.8614  -26.6566   15.8737 C.ar    1  UNL1        0.0469
      6 C          14.4116  -26.9632   14.6058 C.ar    1  UNL1        0.1792
      7 O          13.2157  -29.2938   17.8125 O.3     1  UNL1       -0.5053
      8 H          12.6440  -30.0234   17.6758 H       1  UNL1        0.2922
      9 C          11.6973  -28.3208   12.9529 C.3     1  UNL1        0.2526
     10 O          13.1110  -28.3412   13.1599 O.3     1  UNL1       -0.4682
     11 C          14.9410  -27.1156   18.3195 C.2     1  UNL1        0.1987
     12 O          14.1835  -27.2040   19.2695 O.2     1  UNL1       -0.2865
     13 C          16.3241  -26.6890   18.5248 C.2     1  UNL1        0.0421
     14 C          16.7289  -25.4757   18.0883 C.2     1  UNL1        0.0033
     15 C          18.1440  -25.0937   18.1883 C.ar    1  UNL1        0.0003
     16 C          19.1459  -26.0233   17.8844 C.ar    1  UNL1        0.0031
     17 C          20.4702  -25.6586   17.9745 C.ar    1  UNL1        0.0366
     18 C          20.8137  -24.3728   18.3769 C.ar    1  UNL1        0.1337
     19 C          19.8229  -23.4474   18.6855 C.ar    1  UNL1        0.0366
     20 C          18.4956  -23.8002   18.5935 C.ar    1  UNL1        0.0031
     21 O          22.1211  -24.0197   18.4692 O.3     1  UNL1       -0.5055
     22 H          22.7903  -24.6419   18.2617 H       1  UNL1        0.2922
     23 O          14.7988  -26.2033   13.5462 O.3     1  UNL1       -0.4504
     24 C          15.8877  -25.4078   13.6967 C.ar    1  UNL1        0.1454
     25 C          17.0499  -25.9231   14.2609 C.ar    1  UNL1        0.0375
     26 C          18.1570  -25.1205   14.4157 C.ar    1  UNL1        0.0031
     27 C          18.1119  -23.7826   14.0047 C.ar    1  UNL1        0.0003
     28 C          16.9375  -23.2671   13.4425 C.ar    1  UNL1        0.0031
     29 C          15.8378  -24.0797   13.2869 C.ar    1  UNL1        0.0375
     30 C          19.2906  -22.9212   14.1681 C.2     1  UNL1        0.0033
     31 C          20.3957  -23.3974   14.7836 C.2     1  UNL1        0.0421
     32 C          21.5266  -22.5091   15.0454 C.2     1  UNL1        0.1986
     33 O          22.6587  -22.9577   15.0777 O.2     1  UNL1       -0.2865
     34 C          21.2971  -21.0703   15.2705 C.ar    1  UNL1        0.0728
     35 C          20.7093  -20.6308   16.4611 C.ar    1  UNL1        0.0093
     36 C          20.5021  -19.2872   16.6698 C.ar    1  UNL1        0.0369
     37 C          20.8649  -18.3621   15.6949 C.ar    1  UNL1        0.1367
     38 C          21.4433  -18.7875   14.5080 C.ar    1  UNL1        0.0733
     39 C          21.6623  -20.1366   14.2886 C.ar    1  UNL1        0.1397
     40 O          22.2283  -20.5546   13.1286 O.3     1  UNL1       -0.5053
     41 O          20.6513  -17.0387   15.9063 O.3     1  UNL1       -0.5054
     42 H          22.3757  -21.4681   12.9819 H       1  UNL1        0.2922
     43 H          20.2607  -16.7492   16.7073 H       1  UNL1        0.2922
@<TRIPOS>BOND
     1     9    10    1
     2    10     1    1
     3     1     6   ar
     4     1     2   ar
     5     2     3   ar
     6     3     4   ar
     7     3     7    1
     8     4     5   ar
     9     4    11    1
    10     5     6   ar
    11     6    23    1
    12    23    24    1
    13    24    29   ar
    14    24    25   ar
    15    25    26   ar
    16    26    27   ar
    17    27    28   ar
    18    27    30    1
    19    28    29   ar
    20    30    31    2
    21    31    32    1
    22    32    33    2
    23    32    34    1
    24    34    39   ar
    25    34    35   ar
    26    35    36   ar
    27    36    37   ar
    28    37    38   ar
    29    37    41    1
    30    38    39   ar
    31    39    40    1
    32    11    12    2
    33    11    13    1
    34    13    14    2
    35    14    15    1
    36    15    20   ar
    37    15    16   ar
    38    16    17   ar
    39    17    18   ar
    40    18    19   ar
    41    18    21    1
    42    19    20   ar
    43    40    42    1
    44    41    43    1
    45    21    22    1
    46     7     8    1
#	Name:			ZINC06056704
#	Creating user name:	trannguyen
#	Creation time:		Wed Dec  7 14:36:19 2022


#	Modifying user name:	trannguyen
#	Modification time:	Wed Dec  7 14:36:19 2022

@<TRIPOS>MOLECULE
ZINC06056704
 29 31 0 0 0
SMALL
GASTEIGER

@<TRIPOS>ATOM
      1 C          20.2255  -25.7717   18.0113 C.3     1  UNL1        0.1501
      2 C          20.5841  -24.3539   17.6474 C.2     1  UNL1        0.2376
      3 O          21.7266  -23.9663   17.7722 O.2     1  UNL1       -0.2738
      4 N          19.6354  -23.5166   17.1837 N.am    1  UNL1       -0.2832
      5 H          18.6947  -23.8058   17.1555 H       1  UNL1        0.1549
      6 C          19.9872  -22.2364   16.7421 C.ar    1  UNL1        0.0503
      7 C          20.4986  -22.0575   15.4634 C.ar    1  UNL1        0.0146
      8 C          20.8445  -20.7924   15.0304 C.ar    1  UNL1        0.0051
      9 C          20.6821  -19.7047   15.8686 C.ar    1  UNL1        0.0715
     10 C          20.1732  -19.8794   17.1423 C.ar    1  UNL1        0.0051
     11 C          19.8253  -21.1419   17.5814 C.ar    1  UNL1        0.0146
     12 C          21.0606  -18.3258   15.3927 C.3     1  UNL1        0.4186
     13 F          21.2115  -18.3375   14.0019 F       1  UNL1       -0.1659
     14 F          20.0555  -17.4186   15.7451 F       1  UNL1       -0.1659
     15 F          22.2661  -17.9411   15.9894 F       1  UNL1       -0.1659
     16 S          20.6217  -26.8686   16.6271 S.3     1  UNL1       -0.0655
     17 N          20.0133  -25.7943   14.1133 N.ar    1  UNL1       -0.2724
     18 C          18.8972  -25.2875   13.5018 C.ar    1  UNL1        0.1479
     19 N          17.9204  -25.3540   14.3618 N.ar    1  UNL1       -0.1325
     20 N          18.3353  -25.8682   15.4640 N.ar    1  UNL1       -0.1221
     21 C          19.6137  -26.1530   15.3715 C.ar    1  UNL1        0.1973
     22 C          18.8146  -24.7515   12.0958 C.3     1  UNL1        0.0742
     23 C          25.2114  -26.3007   11.8903 C.3     1  UNL1        0.0310
     24 C          23.8313  -26.1662   12.4805 C.ar    1  UNL1       -0.0218
     25 C          22.8793  -27.1391   12.2377 C.ar    1  UNL1       -0.0028
     26 C          21.6135  -27.0185   12.7773 C.ar    1  UNL1        0.0173
     27 C          21.2976  -25.9194   13.5640 C.ar    1  UNL1        0.0669
     28 C          22.2537  -24.9414   13.8013 C.ar    1  UNL1        0.0173
     29 C          23.5195  -25.0699   13.2633 C.ar    1  UNL1       -0.0028
@<TRIPOS>BOND
     1    23    24    1
     2    24    29   ar
     3    24    25   ar
     4    25    26   ar
     5    26    27   ar
     6    27    28   ar
     7    27    17    1
     8    28    29   ar
     9    17    21   ar
    10    17    18   ar
    11    18    19   ar
    12    18    22    1
    13    19    20   ar
    14    20    21   ar
    15    21    16    1
    16    16     1    1
    17     1     2    1
    18     2     3    2
    19     2     4   am
    20     4     6    1
    21     6    11   ar
    22     6     7   ar
    23     7     8   ar
    24     8     9   ar
    25     9    10   ar
    26     9    12    1
    27    10    11   ar
    28    12    13    1
    29    12    14    1
    30    12    15    1
    31     4     5    1
#	Name:			ZINC06089726
#	Creating user name:	trannguyen
#	Creation time:		Wed Dec  7 14:36:19 2022


#	Modifying user name:	trannguyen
#	Modification time:	Wed Dec  7 14:36:19 2022

@<TRIPOS>MOLECULE
ZINC06089726
 45 49 0 0 0
SMALL
GASTEIGER

@<TRIPOS>ATOM
      1 C          14.7566  -24.9879   14.7918 C.2     1  UNL1        0.1177
      2 N          13.8575  -24.0934   15.0671 N.2     1  UNL1       -0.1774
      3 C          17.8783  -23.4918   13.3366 C.ar    1  UNL1        0.1729
      4 C          16.5556  -23.8633   13.4923 C.ar    1  UNL1        0.0417
      5 C          16.1656  -24.5887   14.6206 C.ar    1  UNL1        0.0239
      6 C          17.1141  -24.9354   15.5864 C.ar    1  UNL1        0.0049
      7 C          18.4322  -24.5661   15.4217 C.ar    1  UNL1        0.0408
      8 C          18.8184  -23.8406   14.3037 C.ar    1  UNL1        0.1824
      9 O          18.2615  -22.7857   12.2395 O.3     1  UNL1       -0.4724
     10 C          18.2998  -24.8850   11.0430 C.3     1  UNL1        0.0512
     11 C          18.0162  -23.3835   10.9650 C.3     1  UNL1        0.2057
     12 O          20.1183  -23.4742   14.1491 O.3     1  UNL1       -0.4179
     13 C          20.8017  -23.1582   15.2661 C.2     1  UNL1        0.3458
     14 O          21.5336  -23.9787   15.7830 O.2     1  UNL1       -0.2445
     15 C          20.6609  -21.8142   15.8627 C.ar    1  UNL1        0.0777
     16 C          19.7766  -21.6068   16.9235 C.ar    1  UNL1        0.0066
     17 C          19.6497  -20.3493   17.4755 C.ar    1  UNL1        0.0019
     18 C          20.3963  -19.2944   16.9806 C.ar    1  UNL1        0.0241
     19 C          21.2702  -19.4917   15.9264 C.ar    1  UNL1        0.1431
     20 C          21.4110  -20.7455   15.3683 C.ar    1  UNL1        0.0305
     21 N          22.0605  -18.3562   15.3999 N.pl3   1  UNL1        0.0577
     22 O          21.9863  -18.0571   14.2216 O.2     1  UNL1       -0.1261
     23 O          22.7849  -17.7209   16.1450 O.2     1  UNL1       -0.1261
     24 N          12.5052  -24.4547   15.1268 N.pl3   1  UNL1       -0.2043
     25 H          11.8073  -23.7672   15.0291 H       1  UNL1        0.1775
     26 C          12.1512  -25.7750   15.3227 C.ar    1  UNL1        0.2409
     27 N          11.7624  -26.5191   14.2914 N.ar    1  UNL1       -0.1794
     28 C          11.4260  -27.7912   14.4794 C.ar    1  UNL1        0.2254
     29 N          11.4685  -28.3169   15.6999 N.ar    1  UNL1       -0.1806
     30 C          11.8523  -27.5717   16.7316 C.ar    1  UNL1        0.2251
     31 N          12.1936  -26.3007   16.5432 N.ar    1  UNL1       -0.1795
     32 N          11.8968  -28.1176   17.9985 N.pl3   1  UNL1       -0.2729
     33 C          11.1098  -29.3575   18.0657 C.3     1  UNL1        0.1257
     34 C          11.2350  -29.9596   19.4678 C.3     1  UNL1        0.1637
     35 O          10.8100  -28.9954   20.4349 O.3     1  UNL1       -0.3501
     36 C          11.5556  -27.7755   20.3978 C.3     1  UNL1        0.1637
     37 C          11.4337  -27.1514   19.0051 C.3     1  UNL1        0.1257
     38 N          11.0272  -28.5659   13.4071 N.pl3   1  UNL1       -0.2824
     39 H          10.3913  -28.2044   12.7482 H       1  UNL1        0.1551
     40 C          11.5268  -29.8634   13.2578 C.ar    1  UNL1        0.0505
     41 C          10.7407  -30.9557   13.6013 C.ar    1  UNL1        0.0147
     42 C          11.2350  -32.2361   13.4472 C.ar    1  UNL1        0.0013
     43 C          12.5154  -32.4308   12.9624 C.ar    1  UNL1        0.0001
     44 C          13.3028  -31.3452   12.6248 C.ar    1  UNL1        0.0013
     45 C          12.8123  -30.0625   12.7712 C.ar    1  UNL1        0.0147
@<TRIPOS>BOND
     1    10    11    1
     2    11     9    1
     3     9     3    1
     4     3     8   ar
     5     3     4   ar
     6     4     5   ar
     7     5     6   ar
     8     5     1    1
     9     6     7   ar
    10     7     8   ar
    11     8    12    1
    12    12    13    1
    13    13    14    2
    14    13    15    1
    15    15    20   ar
    16    15    16   ar
    17    16    17   ar
    18    17    18   ar
    19    18    19   ar
    20    19    20   ar
    21    19    21    1
    22    21    22    2
    23    21    23    2
    24     1     2    2
    25     2    24    1
    26    24    26    1
    27    26    31   ar
    28    26    27   ar
    29    27    28   ar
    30    28    29   ar
    31    28    38    1
    32    29    30   ar
    33    30    31   ar
    34    30    32    1
    35    32    37    1
    36    32    33    1
    37    33    34    1
    38    34    35    1
    39    35    36    1
    40    36    37    1
    41    38    40    1
    42    40    45   ar
    43    40    41   ar
    44    41    42   ar
    45    42    43   ar
    46    43    44   ar
    47    44    45   ar
    48    24    25    1
    49    38    39    1
#	Name:			ZINC06090010
#	Creating user name:	trannguyen
#	Creation time:		Wed Dec  7 14:36:19 2022


#	Modifying user name:	trannguyen
#	Modification time:	Wed Dec  7 14:36:19 2022

@<TRIPOS>MOLECULE
ZINC06090010
 40 43 0 0 0
SMALL
GASTEIGER

@<TRIPOS>ATOM
      1 C          17.0227  -25.1700   14.6907 C.ar    1  UNL1        0.1675
      2 N          18.0393  -24.7416   13.9970 N.ar    1  UNL1       -0.1307
      3 N          19.1387  -25.1310   14.5365 N.ar    1  UNL1       -0.1220
      4 C          18.8830  -25.8434   15.6093 C.ar    1  UNL1        0.1973
      5 N          17.5224  -25.8913   15.7425 N.ar    1  UNL1       -0.2711
      6 C          16.7915  -26.5425   16.7469 C.ar    1  UNL1        0.0670
      7 C          16.4464  -27.8790   16.6001 C.ar    1  UNL1        0.0173
      8 C          15.7306  -28.5191   17.5930 C.ar    1  UNL1       -0.0028
      9 C          15.3489  -27.8269   18.7277 C.ar    1  UNL1       -0.0218
     10 C          15.6868  -26.4942   18.8743 C.ar    1  UNL1       -0.0028
     11 C          16.4071  -25.8503   17.8870 C.ar    1  UNL1        0.0173
     12 C          14.5626  -28.5264   19.8063 C.3     1  UNL1        0.0310
     13 C          15.5672  -24.9230   14.3881 C.3     1  UNL1        0.1545
     14 N          14.9759  -26.1332   13.8118 N.pl3   1  UNL1       -0.3265
     15 H          15.4030  -26.5700   13.0398 H       1  UNL1        0.1472
     16 C          11.4860  -27.7274   15.4407 C.ar    1  UNL1        0.1386
     17 C          11.9436  -28.1744   14.2100 C.ar    1  UNL1        0.0382
     18 C          13.1000  -27.6469   13.6696 C.ar    1  UNL1        0.0174
     19 C          13.8043  -26.6683   14.3586 C.ar    1  UNL1        0.0451
     20 C          13.3483  -26.2251   15.5930 C.ar    1  UNL1        0.0174
     21 C          12.1887  -26.7496   16.1293 C.ar    1  UNL1        0.0382
     22 O          10.3474  -28.2476   15.9723 O.3     1  UNL1       -0.4755
     23 C          11.2860  -29.9009   17.4644 C.3     1  UNL1        0.0512
     24 C          10.3534  -29.6433   16.2792 C.3     1  UNL1        0.2055
     25 S          20.0676  -26.5944   16.6756 S.3     1  UNL1       -0.0669
     26 C          20.0277  -25.4293   18.0601 C.3     1  UNL1        0.1312
     27 C          20.8739  -25.9762   19.2116 C.3     1  UNL1        0.0218
     28 C          20.5834  -24.1010   17.6152 C.2     1  UNL1        0.2362
     29 O          21.7351  -23.8121   17.8625 O.2     1  UNL1       -0.2739
     30 N          19.8007  -23.2343   16.9425 N.am    1  UNL1       -0.2832
     31 H          18.8878  -23.4953   16.6821 H       1  UNL1        0.1549
     32 C          20.2855  -21.9635   16.6142 C.ar    1  UNL1        0.0504
     33 C          19.9559  -20.8681   17.4017 C.ar    1  UNL1        0.0164
     34 C          20.4411  -19.6161   17.0784 C.ar    1  UNL1        0.0253
     35 C          21.2441  -19.4504   15.9649 C.ar    1  UNL1        0.1430
     36 C          21.5694  -20.5383   15.1754 C.ar    1  UNL1        0.0253
     37 C          21.0925  -21.7939   15.4968 C.ar    1  UNL1        0.0164
     38 N          21.7570  -18.1061   15.6175 N.pl3   1  UNL1        0.0577
     39 O          21.8443  -17.2470   16.4764 O.2     1  UNL1       -0.1261
     40 O          22.0919  -17.8592   14.4728 O.2     1  UNL1       -0.1261
@<TRIPOS>BOND
     1    23    24    1
     2    24    22    1
     3    22    16    1
     4    16    21   ar
     5    16    17   ar
     6    17    18   ar
     7    18    19   ar
     8    19    20   ar
     9    19    14    1
    10    20    21   ar
    11    14    13    1
    12    13     1    1
    13     1     5   ar
    14     1     2   ar
    15     2     3   ar
    16     3     4   ar
    17     4     5   ar
    18     4    25    1
    19     5     6    1
    20     6    11   ar
    21     6     7   ar
    22     7     8   ar
    23     8     9   ar
    24     9    10   ar
    25     9    12    1
    26    10    11   ar
    27    25    26    1
    28    26    27    1
    29    26    28    1
    30    28    29    2
    31    28    30   am
    32    30    32    1
    33    32    37   ar
    34    32    33   ar
    35    33    34   ar
    36    34    35   ar
    37    35    36   ar
    38    35    38    1
    39    36    37   ar
    40    38    39    2
    41    38    40    2
    42    14    15    1
    43    30    31    1
#	Name:			ZINC06090013
#	Creating user name:	trannguyen
#	Creation time:		Wed Dec  7 14:36:19 2022


#	Modifying user name:	trannguyen
#	Modification time:	Wed Dec  7 14:36:19 2022

@<TRIPOS>MOLECULE
ZINC06090013
 40 43 0 0 0
SMALL
GASTEIGER

@<TRIPOS>ATOM
      1 C          21.1482  -26.1671   14.7989 C.ar    1  UNL1        0.1675
      2 N          21.8047  -26.6869   15.7973 N.ar    1  UNL1       -0.1307
      3 N          21.1116  -26.6005   16.8760 N.ar    1  UNL1       -0.1220
      4 C          19.9598  -26.0234   16.6225 C.ar    1  UNL1        0.1973
      5 N          19.9459  -25.7279   15.2869 N.ar    1  UNL1       -0.2711
      6 C          18.9161  -25.1044   14.5675 C.ar    1  UNL1        0.0670
      7 C          17.7685  -25.8134   14.2401 C.ar    1  UNL1        0.0173
      8 C          16.7538  -25.1953   13.5355 C.ar    1  UNL1       -0.0028
      9 C          16.8850  -23.8747   13.1472 C.ar    1  UNL1       -0.0218
     10 C          18.0293  -23.1675   13.4672 C.ar    1  UNL1       -0.0028
     11 C          19.0450  -23.7788   14.1761 C.ar    1  UNL1        0.0173
     12 C          15.7789  -23.2051   12.3731 C.3     1  UNL1        0.0310
     13 C          21.6210  -26.0725   13.3711 C.3     1  UNL1        0.1545
     14 N          23.0805  -26.1912   13.3312 N.pl3   1  UNL1       -0.3265
     15 H          23.6175  -25.9269   14.1129 H       1  UNL1        0.1472
     16 C          24.9603  -27.6479    9.9078 C.ar    1  UNL1        0.1386
     17 C          25.6043  -26.7170   10.7093 C.ar    1  UNL1        0.0382
     18 C          24.9823  -26.2339   11.8438 C.ar    1  UNL1        0.0174
     19 C          23.7115  -26.6802   12.1819 C.ar    1  UNL1        0.0451
     20 C          23.0696  -27.6161   11.3817 C.ar    1  UNL1        0.0174
     21 C          23.6907  -28.0937   10.2444 C.ar    1  UNL1        0.0382
     22 O          25.5736  -28.1234    8.7910 O.3     1  UNL1       -0.4755
     23 C          24.8715  -26.5015    7.1427 C.3     1  UNL1        0.0512
     24 C          24.8742  -27.9752    7.5537 C.3     1  UNL1        0.2055
     25 S          18.6758  -25.6918   17.7827 S.3     1  UNL1       -0.0669
     26 C          19.6142  -24.7903   19.0409 C.3     1  UNL1        0.1312
     27 C          18.6729  -24.3577   20.1667 C.3     1  UNL1        0.0218
     28 C          20.2468  -23.5721   18.4190 C.2     1  UNL1        0.2362
     29 O          21.3949  -23.2835   18.6828 O.2     1  UNL1       -0.2739
     30 N          19.5368  -22.8032   17.5698 N.am    1  UNL1       -0.2832
     31 H          18.6287  -23.0740   17.3027 H       1  UNL1        0.1549
     32 C          20.0900  -21.6201   17.0679 C.ar    1  UNL1        0.0504
     33 C          19.6928  -20.3930   17.5825 C.ar    1  UNL1        0.0164
     34 C          20.2444  -19.2273   17.0881 C.ar    1  UNL1        0.0253
     35 C          21.1836  -19.2806   16.0745 C.ar    1  UNL1        0.1430
     36 C          21.5775  -20.5007   15.5564 C.ar    1  UNL1        0.0253
     37 C          21.0335  -21.6703   16.0500 C.ar    1  UNL1        0.0164
     38 N          21.7689  -18.0291   15.5435 N.pl3   1  UNL1        0.0577
     39 O          22.0167  -17.9290   14.3552 O.2     1  UNL1       -0.1261
     40 O          22.0028  -17.0994   16.2949 O.2     1  UNL1       -0.1261
@<TRIPOS>BOND
     1    23    24    1
     2    24    22    1
     3    22    16    1
     4    16    21   ar
     5    16    17   ar
     6    17    18   ar
     7    18    19   ar
     8    19    20   ar
     9    19    14    1
    10    20    21   ar
    11    14    13    1
    12    13     1    1
    13     1     5   ar
    14     1     2   ar
    15     2     3   ar
    16     3     4   ar
    17     4     5   ar
    18     4    25    1
    19     5     6    1
    20     6    11   ar
    21     6     7   ar
    22     7     8   ar
    23     8     9   ar
    24     9    10   ar
    25     9    12    1
    26    10    11   ar
    27    25    26    1
    28    26    27    1
    29    26    28    1
    30    28    29    2
    31    28    30   am
    32    30    32    1
    33    32    37   ar
    34    32    33   ar
    35    33    34   ar
    36    34    35   ar
    37    35    36   ar
    38    35    38    1
    39    36    37   ar
    40    38    39    2
    41    38    40    2
    42    14    15    1
    43    30    31    1
#	Name:			ZINC06093328
#	Creating user name:	trannguyen
#	Creation time:		Wed Dec  7 14:36:20 2022


#	Modifying user name:	trannguyen
#	Modification time:	Wed Dec  7 14:36:20 2022

@<TRIPOS>MOLECULE
ZINC06093328
 37 40 0 0 0
SMALL
GASTEIGER

@<TRIPOS>ATOM
      1 C          15.6841  -26.4244   14.8433 C.ar    1  UNL1        0.1660
      2 C          15.0176  -25.8011   13.8117 C.ar    1  UNL1        0.0423
      3 C          15.9040  -24.8627   13.2660 C.ar    1  UNL1        0.0407
      4 C          17.0642  -24.9476   13.9767 C.ar    1  UNL1        0.1454
      5 O          16.9222  -25.8960   14.9221 O.2     1  UNL1       -0.4519
      6 C          18.2769  -24.1386   13.7443 C.ar    1  UNL1        0.0346
      7 C          19.5389  -24.6715   14.0177 C.ar    1  UNL1        0.0043
      8 C          20.6677  -23.9098   13.7986 C.ar    1  UNL1        0.0170
      9 C          20.5522  -22.6208   13.3086 C.ar    1  UNL1        0.0894
     10 C          19.3050  -22.0845   13.0408 C.ar    1  UNL1        0.0170
     11 C          18.1679  -22.8365   13.2503 C.ar    1  UNL1        0.0043
     12 S          21.9997  -21.6553   13.0313 S.O2    1  UNL1       -0.0559
     13 O          21.5807  -20.4820   12.3478 O.2     1  UNL1       -0.1841
     14 O          22.9804  -22.5366   12.5011 O.2     1  UNL1       -0.1841
     15 N          22.5540  -21.1671   14.5134 N.pl3   1  UNL1       -0.5049
     16 C          21.6791  -20.6122   15.4311 C.ar    1  UNL1        0.0590
     17 N          21.1731  -21.3777   16.3869 N.ar    1  UNL1       -0.2485
     18 C          20.3342  -20.8787   17.2797 C.ar    1  UNL1        0.1000
     19 C          19.9868  -19.5388   17.2062 C.ar    1  UNL1        0.0412
     20 C          20.5347  -18.7668   16.1938 C.ar    1  UNL1        0.1000
     21 N          21.3672  -19.3283   15.3328 N.ar    1  UNL1       -0.2485
     22 N          14.1362  -27.2301   16.4865 N.2     1  UNL1       -0.1751
     23 C          15.1439  -27.4809   15.7017 C.2     1  UNL1        0.1549
     24 N          13.6196  -28.2409   17.3077 N.am    1  UNL1       -0.2175
     25 H          14.2306  -28.8428   17.7910 H       1  UNL1        0.1763
     26 C          12.2861  -28.3891   17.4358 C.2     1  UNL1        0.1543
     27 S          11.4002  -27.3289   18.4469 S.2     1  UNL1       -0.0169
     28 N          11.6500  -29.3719   16.7681 N.am    1  UNL1       -0.2923
     29 H          11.4540  -30.2256   17.2177 H       1  UNL1        0.1540
     30 C          12.1137  -29.5747   14.4009 C.ar    1  UNL1        0.1520
     31 C          11.7302  -29.3817   13.0837 C.ar    1  UNL1        0.0382
     32 C          10.5101  -28.7978   12.7972 C.ar    1  UNL1        0.0032
     33 C           9.6697  -28.4046   13.8225 C.ar    1  UNL1        0.0015
     34 C          10.0429  -28.5980   15.1390 C.ar    1  UNL1        0.0177
     35 C          11.2676  -29.1788   15.4344 C.ar    1  UNL1        0.0840
     36 C          13.3966  -31.5708   14.5610 C.3     1  UNL1        0.2525
     37 O          13.3131  -30.1496   14.6843 O.3     1  UNL1       -0.4702
@<TRIPOS>UNITY_ATOM_ATTR
15 1
charge -1
@<TRIPOS>BOND
     1    36    37    1
     2    37    30    1
     3    30    35   ar
     4    30    31   ar
     5    31    32   ar
     6    32    33   ar
     7    33    34   ar
     8    34    35   ar
     9    35    28    1
    10    28    26    1
    11    26    27    2
    12    26    24    1
    13    24    22    1
    14    22    23    2
    15    23     1    1
    16     1     5   ar
    17     1     2   ar
    18     2     3   ar
    19     3     4   ar
    20     4     5   ar
    21     4     6    1
    22     6    11   ar
    23     6     7   ar
    24     7     8   ar
    25     8     9   ar
    26     9    10   ar
    27     9    12    1
    28    10    11   ar
    29    12    13    2
    30    12    14    2
    31    12    15    1
    32    15    16    1
    33    16    21   ar
    34    16    17   ar
    35    17    18   ar
    36    18    19   ar
    37    19    20   ar
    38    20    21   ar
    39    28    29    1
    40    24    25    1
#	Name:			ZINC06135758
#	Creating user name:	trannguyen
#	Creation time:		Wed Dec  7 14:36:20 2022


#	Modifying user name:	trannguyen
#	Modification time:	Wed Dec  7 14:36:20 2022

@<TRIPOS>MOLECULE
ZINC06135758
 44 47 0 0 0
SMALL
GASTEIGER

@<TRIPOS>ATOM
      1 C          15.2578  -26.7466   16.9723 C.2     1  UNL1        0.2781
      2 O          16.3424  -27.2408   17.2206 O.2     1  UNL1       -0.2670
      3 N          15.1837  -25.6157   16.2430 N.am    1  UNL1       -0.2013
      4 H          14.3142  -25.1751   16.1049 H       1  UNL1        0.1776
      5 C          13.7940  -27.4509   18.7994 C.2     1  UNL1        0.0194
      6 C          14.0314  -27.3822   17.4671 C.2     1  UNL1        0.1063
      7 C          10.0532  -28.8601   20.2169 C.ar    1  UNL1        0.0479
      8 C          11.0881  -29.7596   19.9777 C.ar    1  UNL1        0.0145
      9 C          12.3035  -29.3069   19.5177 C.ar    1  UNL1        0.0013
     10 C          12.4983  -27.9390   19.2904 C.ar    1  UNL1        0.0015
     11 C          11.4562  -27.0371   19.5379 C.ar    1  UNL1        0.0013
     12 C          10.2422  -27.4994   19.9923 C.ar    1  UNL1        0.0145
     13 C           8.4530  -29.1271   22.0862 C.3     1  UNL1        0.1122
     14 N           8.8248  -29.3227   20.6828 N.pl3   1  UNL1       -0.3041
     15 C           7.9048  -30.0048   19.7694 C.3     1  UNL1        0.1122
     16 N          13.1070  -27.9173   16.5632 N.am    1  UNL1       -0.2768
     17 C          12.1811  -27.1198   15.9950 C.2     1  UNL1        0.2496
     18 O          12.2050  -25.9211   16.1965 O.2     1  UNL1       -0.2698
     19 H          13.1330  -28.8763   16.3423 H       1  UNL1        0.1553
     20 C          11.1365  -27.7025   15.1266 C.ar    1  UNL1        0.0537
     21 C          10.2252  -28.6230   15.6471 C.ar    1  UNL1        0.0045
     22 C           9.2497  -29.1594   14.8323 C.ar    1  UNL1        0.0001
     23 C           9.1800  -28.7950   13.4994 C.ar    1  UNL1        0.0000
     24 C          10.0833  -27.8871   12.9759 C.ar    1  UNL1        0.0001
     25 C          11.0605  -27.3392   13.7809 C.ar    1  UNL1        0.0045
     26 N          16.3440  -25.0670   15.6814 N.2     1  UNL1       -0.1773
     27 C          16.3265  -24.6198   14.4626 C.2     1  UNL1        0.1177
     28 C          17.5473  -24.0426   13.8717 C.ar    1  UNL1        0.0239
     29 C          17.5023  -22.7888   13.2562 C.ar    1  UNL1        0.0049
     30 C          18.6465  -22.2479   12.7095 C.ar    1  UNL1        0.0408
     31 C          19.8421  -22.9505   12.7586 C.ar    1  UNL1        0.1824
     32 C          19.8945  -24.2011   13.3708 C.ar    1  UNL1        0.1731
     33 C          18.7525  -24.7474   13.9261 C.ar    1  UNL1        0.0417
     34 O          21.0690  -24.8844   13.4215 O.3     1  UNL1       -0.4683
     35 C          20.9976  -26.2740   13.7476 C.3     1  UNL1        0.2526
     36 O          20.9660  -22.4150   12.2131 O.3     1  UNL1       -0.4179
     37 C          21.8875  -21.9277   13.0663 C.2     1  UNL1        0.3458
     38 O          23.0287  -22.3425   13.0298 O.2     1  UNL1       -0.2445
     39 C          21.5103  -20.8887   14.0462 C.ar    1  UNL1        0.0760
     40 C          21.3367  -21.2229   15.3909 C.ar    1  UNL1        0.0065
     41 C          20.9849  -20.2475   16.3007 C.ar    1  UNL1        0.0002
     42 C          20.8040  -18.9407   15.8836 C.ar    1  UNL1        0.0000
     43 C          20.9743  -18.6026   14.5527 C.ar    1  UNL1        0.0002
     44 C          21.3261  -19.5680   13.6322 C.ar    1  UNL1        0.0065
@<TRIPOS>BOND
     1    13    14    1
     2    14    15    1
     3    14     7    1
     4     7    12   ar
     5     7     8   ar
     6     8     9   ar
     7     9    10   ar
     8    10    11   ar
     9    10     5    1
    10    11    12   ar
    11     5     6    2
    12     6     1    1
    13     6    16    1
    14     1     2    2
    15     1     3   am
    16     3    26    1
    17    26    27    2
    18    27    28    1
    19    28    33   ar
    20    28    29   ar
    21    29    30   ar
    22    30    31   ar
    23    31    32   ar
    24    31    36    1
    25    32    33   ar
    26    32    34    1
    27    34    35    1
    28    36    37    1
    29    37    38    2
    30    37    39    1
    31    39    44   ar
    32    39    40   ar
    33    40    41   ar
    34    41    42   ar
    35    42    43   ar
    36    43    44   ar
    37    16    17   am
    38    17    18    2
    39    17    20    1
    40    20    25   ar
    41    20    21   ar
    42    21    22   ar
    43    22    23   ar
    44    23    24   ar
    45    24    25   ar
    46     3     4    1
    47    16    19    1
#	Name:			ZINC06146207
#	Creating user name:	trannguyen
#	Creation time:		Wed Dec  7 14:36:19 2022


#	Modifying user name:	trannguyen
#	Modification time:	Wed Dec  7 14:36:19 2022

@<TRIPOS>MOLECULE
ZINC06146207
 42 46 0 0 0
SMALL
GASTEIGER

@<TRIPOS>ATOM
      1 C          15.2500  -24.9252   14.2675 C.2     1  UNL1        0.2362
      2 N          14.5239  -25.9379   14.6442 N.2     1  UNL1       -0.1441
      3 O          14.6973  -23.6876   14.1827 O.2     1  UNL1       -0.4911
      4 H          15.2199  -22.9587   13.9116 H       1  UNL1        0.2938
      5 C          19.3482  -25.4922   13.3031 C.ar    1  UNL1        0.0648
      6 C          18.7235  -26.3457   14.2059 C.ar    1  UNL1        0.0160
      7 C          17.3946  -26.1647   14.5209 C.ar    1  UNL1        0.0060
      8 C          16.6746  -25.1222   13.9324 C.ar    1  UNL1        0.0544
      9 C          17.3053  -24.2667   13.0259 C.ar    1  UNL1        0.0060
     10 C          18.6344  -24.4536   12.7151 C.ar    1  UNL1        0.0160
     11 N          20.6929  -25.6818   12.9820 N.pl3   1  UNL1       -0.2150
     12 H          20.9399  -26.2143   12.1916 H       1  UNL1        0.1737
     13 S          21.8731  -25.0112   13.9305 S.O2    1  UNL1        0.0736
     14 O          21.7044  -25.5538   15.2330 O.2     1  UNL1       -0.1499
     15 O          23.0909  -25.1295   13.2078 O.2     1  UNL1       -0.1499
     16 C          20.9811  -20.5829   14.2471 C.ar    1  UNL1        0.1386
     17 C          21.6154  -21.0850   13.1202 C.ar    1  UNL1        0.0383
     18 C          21.8864  -22.4363   13.0259 C.ar    1  UNL1        0.0233
     19 C          21.5260  -23.2882   14.0538 C.ar    1  UNL1        0.1254
     20 C          20.8886  -22.7910   15.1755 C.ar    1  UNL1        0.0233
     21 C          20.6205  -21.4396   15.2770 C.ar    1  UNL1        0.0383
     22 O          20.7137  -19.2539   14.3424 O.3     1  UNL1       -0.4755
     23 C          22.2294  -18.0427   15.7834 C.3     1  UNL1        0.0512
     24 C          21.8327  -18.3652   14.3412 C.3     1  UNL1        0.2055
     25 N          13.1485  -25.7739   14.8547 N.pl3   1  UNL1       -0.2333
     26 H          12.6908  -24.9713   14.5149 H       1  UNL1        0.1745
     27 C          12.4292  -26.7459   15.5443 C.2     1  UNL1        0.0675
     28 C          12.7035  -27.0302   16.8264 C.2     1  UNL1        0.0373
     29 C          11.9167  -28.0957   17.5434 C.3     1  UNL1        0.2116
     30 O          10.5818  -28.1584   17.0401 O.3     1  UNL1       -0.4702
     31 C          10.4275  -28.1978   15.6922 C.ar    1  UNL1        0.1405
     32 C          11.3320  -27.4952   14.8870 C.ar    1  UNL1        0.0486
     33 C          11.2008  -27.5222   13.5033 C.ar    1  UNL1        0.0043
     34 C          10.1662  -28.2383   12.9312 C.ar    1  UNL1        0.0002
     35 C           9.2704  -28.9282   13.7287 C.ar    1  UNL1        0.0031
     36 C           9.3978  -28.9103   15.1063 C.ar    1  UNL1        0.0370
     37 C          12.5874  -29.4299   17.3403 C.ar    1  UNL1        0.0215
     38 C          11.9304  -30.5943   17.6915 C.ar    1  UNL1       -0.0005
     39 C          12.5440  -31.8183   17.5011 C.ar    1  UNL1       -0.0002
     40 C          13.8181  -31.8774   16.9682 C.ar    1  UNL1       -0.0000
     41 C          14.4772  -30.7126   16.6219 C.ar    1  UNL1       -0.0002
     42 C          13.8619  -29.4888   16.8082 C.ar    1  UNL1       -0.0005
@<TRIPOS>BOND
     1    23    24    1
     2    24    22    1
     3    22    16    1
     4    16    21   ar
     5    16    17   ar
     6    17    18   ar
     7    18    19   ar
     8    19    20   ar
     9    19    13    1
    10    20    21   ar
    11    13    14    2
    12    13    15    2
    13    13    11    1
    14    11     5    1
    15     5    10   ar
    16     5     6   ar
    17     6     7   ar
    18     7     8   ar
    19     8     9   ar
    20     8     1    1
    21     9    10   ar
    22     1     2    2
    23     1     3    1
    24     2    25    1
    25    25    27    1
    26    27    32    1
    27    27    28    2
    28    28    29    1
    29    29    30    1
    30    29    37    1
    31    30    31    1
    32    31    36   ar
    33    31    32   ar
    34    32    33   ar
    35    33    34   ar
    36    34    35   ar
    37    35    36   ar
    38    37    42   ar
    39    37    38   ar
    40    38    39   ar
    41    39    40   ar
    42    40    41   ar
    43    41    42   ar
    44    11    12    1
    45    25    26    1
    46     3     4    1
#	Name:			ZINC06146432
#	Creating user name:	trannguyen
#	Creation time:		Wed Dec  7 14:36:19 2022


#	Modifying user name:	trannguyen
#	Modification time:	Wed Dec  7 14:36:19 2022

@<TRIPOS>MOLECULE
ZINC06146432
 40 43 0 0 0
SMALL
GASTEIGER

@<TRIPOS>ATOM
      1 N          17.3092  -23.2194   13.7616 N.am    1  UNL1       -0.2943
      2 H          16.7363  -22.4863   14.0834 H       1  UNL1        0.1539
      3 C          21.4364  -23.0588   14.3591 C.ar    1  UNL1        0.1168
      4 C          20.8670  -22.4182   13.2713 C.ar    1  UNL1        0.0363
      5 C          19.4999  -22.4712   13.0734 C.ar    1  UNL1        0.0176
      6 C          18.6935  -23.1669   13.9646 C.ar    1  UNL1        0.0480
      7 C          19.2596  -23.8098   15.0569 C.ar    1  UNL1       -0.0063
      8 C          20.6315  -23.7623   15.2526 C.ar    1  UNL1       -0.0762
      9 C          23.5998  -23.7179   13.6210 C.3     1  UNL1        0.2524
     10 O          22.7824  -23.0060   14.5521 O.3     1  UNL1       -0.4733
     11 N          21.2061  -24.4154   16.3488 N.pl3   1  UNL1       -0.5334
     12 S          21.0121  -23.8002   17.8741 S.O2    1  UNL1       -0.0577
     13 O          21.9990  -24.4172   18.6895 O.2     1  UNL1       -0.1842
     14 O          20.9132  -22.3897   17.7335 O.2     1  UNL1       -0.1842
     15 C          19.4491  -24.3582   18.4660 C.ar    1  UNL1        0.0894
     16 C          19.2691  -25.6897   18.7915 C.ar    1  UNL1        0.0192
     17 C          18.0450  -26.1275   19.2604 C.ar    1  UNL1        0.0309
     18 C          16.9957  -25.2342   19.3940 C.ar    1  UNL1        0.1402
     19 C          17.1756  -23.9019   19.0626 C.ar    1  UNL1        0.0309
     20 C          18.4020  -23.4653   18.5989 C.ar    1  UNL1        0.0192
     21 F          15.7973  -25.6620   19.8478 F       1  UNL1       -0.2042
     22 C          16.7610  -24.2736   13.1255 C.2     1  UNL1        0.1616
     23 S          16.9165  -24.4242   11.4273 S.2     1  UNL1       -0.0164
     24 N          16.0926  -25.2058   13.8239 N.am    1  UNL1       -0.1579
     25 C          15.0135  -24.8722   14.5045 C.2     1  UNL1        0.2120
     26 O          14.4981  -23.6312   14.3858 O.2     1  UNL1       -0.4936
     27 H          14.9069  -23.0064   13.8198 H       1  UNL1        0.2935
     28 C          14.3710  -25.8543   15.3939 C.ar    1  UNL1        0.0507
     29 C          15.1013  -26.4449   16.4309 C.ar    1  UNL1        0.0075
     30 C          14.4953  -27.3591   17.2625 C.ar    1  UNL1        0.0376
     31 C          13.1623  -27.7037   17.0670 C.ar    1  UNL1        0.1453
     32 C          12.4340  -27.1228   16.0346 C.ar    1  UNL1        0.0376
     33 C          13.0302  -26.2040   15.2009 C.ar    1  UNL1        0.0075
     34 O          12.5705  -28.6089   17.8862 O.3     1  UNL1       -0.4535
     35 C          11.5350  -28.1885   18.6593 C.ar    1  UNL1        0.1453
     36 C          11.6184  -26.9795   19.3352 C.ar    1  UNL1        0.0375
     37 C          10.5622  -26.5520   20.1161 C.ar    1  UNL1        0.0031
     38 C           9.4268  -27.3325   20.2330 C.ar    1  UNL1        0.0002
     39 C           9.3435  -28.5403   19.5650 C.ar    1  UNL1        0.0031
     40 C          10.3947  -28.9701   18.7786 C.ar    1  UNL1        0.0375
@<TRIPOS>UNITY_ATOM_ATTR
11 1
charge -1
@<TRIPOS>BOND
     1     9    10    1
     2    10     3    1
     3     3     8   ar
     4     3     4   ar
     5     4     5   ar
     6     5     6   ar
     7     6     7   ar
     8     6     1    1
     9     7     8   ar
    10     8    11    1
    11    11    12    1
    12    12    13    2
    13    12    14    2
    14    12    15    1
    15    15    20   ar
    16    15    16   ar
    17    16    17   ar
    18    17    18   ar
    19    18    19   ar
    20    18    21    1
    21    19    20   ar
    22     1    22    1
    23    22    23    2
    24    22    24    1
    25    24    25    2
    26    25    28    1
    27    25    26    1
    28    28    33   ar
    29    28    29   ar
    30    29    30   ar
    31    30    31   ar
    32    31    32   ar
    33    31    34    1
    34    32    33   ar
    35    34    35    1
    36    35    40   ar
    37    35    36   ar
    38    36    37   ar
    39    37    38   ar
    40    38    39   ar
    41    39    40   ar
    42     1     2    1
    43    26    27    1
#	Name:			ZINC06196126
#	Creating user name:	trannguyen
#	Creation time:		Wed Dec  7 14:36:19 2022


#	Modifying user name:	trannguyen
#	Modification time:	Wed Dec  7 14:36:19 2022

@<TRIPOS>MOLECULE
ZINC06196126
 40 43 0 0 0
SMALL
GASTEIGER

@<TRIPOS>ATOM
      1 C          17.1844  -24.7056   14.4665 C.ar    1  UNL1        0.1726
      2 C          18.3241  -24.3418   15.1662 C.ar    1  UNL1        0.0364
      3 C          18.5070  -24.7792   16.4645 C.ar    1  UNL1       -0.0107
      4 C          17.5552  -25.5801   17.0683 C.ar    1  UNL1       -0.0003
      5 C          16.4159  -25.9463   16.3766 C.ar    1  UNL1        0.0405
      6 C          16.2258  -25.5109   15.0746 C.ar    1  UNL1        0.1824
      7 O          17.0027  -24.2758   13.1894 O.3     1  UNL1       -0.4724
      8 C          17.9583  -24.0565   10.9805 C.3     1  UNL1        0.0512
      9 C          17.6875  -24.9924   12.1601 C.3     1  UNL1        0.2057
     10 O          15.1058  -25.8706   14.3924 O.3     1  UNL1       -0.4179
     11 C          13.9274  -25.4361   14.8791 C.2     1  UNL1        0.3458
     12 O          13.7423  -24.2479   15.0517 O.2     1  UNL1       -0.2445
     13 C          12.8601  -26.4046   15.2032 C.ar    1  UNL1        0.0761
     14 C          11.9148  -26.7557   14.2374 C.ar    1  UNL1        0.0082
     15 C          10.9236  -27.6643   14.5454 C.ar    1  UNL1        0.0243
     16 C          10.8583  -28.2191   15.8113 C.ar    1  UNL1        0.1429
     17 C          11.7889  -27.8719   16.7746 C.ar    1  UNL1        0.0243
     18 C          12.7885  -26.9686   16.4786 C.ar    1  UNL1        0.0082
     19 N           9.7882  -29.1886   16.1364 N.pl3   1  UNL1        0.0577
     20 O          10.0629  -30.3618   16.3149 O.2     1  UNL1       -0.1261
     21 O           8.6328  -28.8135   16.2253 O.2     1  UNL1       -0.1261
     22 C          19.7470  -24.3827   17.2238 C.3     1  UNL1        0.0783
     23 C          20.5889  -25.6051   17.4844 C.ar    1  UNL1        0.0531
     24 C          21.3836  -25.8055   18.5550 C.ar    1  UNL1        0.0532
     25 N          21.9828  -27.0263   18.4262 N.ar    1  UNL1       -0.2772
     26 N          21.5423  -27.6054   17.2286 N.ar    1  UNL1       -0.1357
     27 C          20.6833  -26.7425   16.6484 C.ar    1  UNL1        0.2359
     28 O          20.0953  -26.9118   15.5954 O.3     1  UNL1       -0.4912
     29 C          21.5822  -24.8427   19.6972 C.3     1  UNL1        0.0513
     30 H          22.6148  -27.4295   19.0644 H       1  UNL1        0.1887
     31 H          19.5154  -26.2512   15.2711 H       1  UNL1        0.2938
     32 C          20.5386  -23.3916   16.4102 C.ar    1  UNL1        0.0531
     33 C          20.5405  -22.0535   16.5756 C.ar    1  UNL1        0.0532
     34 N          21.3766  -21.5040   15.6456 N.ar    1  UNL1       -0.2772
     35 N          21.9141  -22.5423   14.8733 N.ar    1  UNL1       -0.1357
     36 C          21.4095  -23.7029   15.3396 C.ar    1  UNL1        0.2359
     37 O          21.6585  -24.8170   14.9158 O.3     1  UNL1       -0.4912
     38 C          19.7488  -21.2923   17.6076 C.3     1  UNL1        0.0513
     39 H          21.5684  -20.5445   15.5367 H       1  UNL1        0.1887
     40 H          21.2567  -25.5677   15.3070 H       1  UNL1        0.2938
@<TRIPOS>BOND
     1     8     9    1
     2     9     7    1
     3     7     1    1
     4     1     6   ar
     5     1     2   ar
     6     2     3   ar
     7     3     4   ar
     8     3    22    1
     9     4     5   ar
    10     5     6   ar
    11     6    10    1
    12    10    11    1
    13    11    12    2
    14    11    13    1
    15    13    18   ar
    16    13    14   ar
    17    14    15   ar
    18    15    16   ar
    19    16    17   ar
    20    16    19    1
    21    17    18   ar
    22    19    20    2
    23    19    21    2
    24    22    23    1
    25    22    32    1
    26    23    27   ar
    27    23    24   ar
    28    24    29    1
    29    24    25   ar
    30    25    26   ar
    31    26    27   ar
    32    27    28    1
    33    32    36   ar
    34    32    33   ar
    35    33    38    1
    36    33    34   ar
    37    34    35   ar
    38    35    36   ar
    39    36    37    1
    40    25    30    1
    41    28    31    1
    42    34    39    1
    43    37    40    1
#	Name:			ZINC06229189
#	Creating user name:	trannguyen
#	Creation time:		Wed Dec  7 14:36:19 2022


#	Modifying user name:	trannguyen
#	Modification time:	Wed Dec  7 14:36:19 2022

@<TRIPOS>MOLECULE
ZINC06229189
 40 43 0 0 0
SMALL
GASTEIGER

@<TRIPOS>ATOM
      1 N          20.9750  -24.7238   17.2373 N.am    1  UNL1       -0.2456
      2 H          21.9593  -24.7361   17.2206 H       1  UNL1        0.1718
      3 C          20.9211  -23.0666   15.5291 C.2     1  UNL1        0.2521
      4 O          22.1113  -23.2240   15.3575 O.2     1  UNL1       -0.2723
      5 N          20.2728  -23.7919   16.4618 N.am    1  UNL1       -0.2336
      6 H          19.3059  -23.6669   16.5983 H       1  UNL1        0.1728
      7 C          20.1669  -22.0598   14.6992 C.3     1  UNL1        0.1516
      8 C          21.7609  -18.1586   15.3966 C.ar    1  UNL1       -0.0000
      9 C          21.7742  -18.6929   14.1217 C.ar    1  UNL1       -0.0003
     10 C          21.2582  -19.9554   13.8960 C.ar    1  UNL1       -0.0030
     11 C          20.7294  -20.6836   14.9452 C.ar    1  UNL1       -0.0035
     12 C          20.7114  -20.1472   16.2191 C.ar    1  UNL1       -0.0030
     13 C          21.2313  -18.8866   16.4456 C.ar    1  UNL1       -0.0003
     14 S          20.3360  -22.4768   12.9418 S.3     1  UNL1       -0.1007
     15 C          18.7192  -22.9938   12.4689 C.ar    1  UNL1        0.0260
     16 C          17.6498  -22.8192   13.3390 C.ar    1  UNL1        0.0062
     17 C          16.3834  -23.2211   12.9630 C.ar    1  UNL1        0.0005
     18 C          16.1803  -23.8059   11.7262 C.ar    1  UNL1        0.0000
     19 C          17.2431  -23.9860   10.8599 C.ar    1  UNL1        0.0005
     20 C          18.5115  -23.5822   11.2271 C.ar    1  UNL1        0.0062
     21 C          20.3030  -25.6034   18.0062 C.2     1  UNL1        0.1511
     22 S          20.2232  -25.3729   19.7007 S.2     1  UNL1       -0.0171
     23 N          19.6940  -26.6646   17.4411 N.am    1  UNL1       -0.2948
     24 H          20.1137  -27.5541   17.4852 H       1  UNL1        0.1539
     25 C          18.4654  -26.5023   16.7919 C.ar    1  UNL1        0.0497
     26 C          18.2994  -26.9610   15.4917 C.ar    1  UNL1        0.0159
     27 C          17.0832  -26.8051   14.8561 C.ar    1  UNL1        0.0182
     28 C          16.0354  -26.1816   15.5083 C.ar    1  UNL1        0.0894
     29 C          16.1993  -25.7181   16.8009 C.ar    1  UNL1        0.0182
     30 C          17.4110  -25.8768   17.4444 C.ar    1  UNL1        0.0159
     31 S          14.4878  -25.9776   14.6910 S.O2    1  UNL1       -0.0559
     32 O          14.0058  -24.6897   15.0494 O.2     1  UNL1       -0.1841
     33 O          14.6880  -26.3671   13.3392 O.2     1  UNL1       -0.1841
     34 N          13.4378  -27.0759   15.3496 N.pl3   1  UNL1       -0.5049
     35 C          12.4786  -27.6791   14.5547 C.ar    1  UNL1        0.0590
     36 N          11.4150  -26.9819   14.1831 N.ar    1  UNL1       -0.2485
     37 C          10.4826  -27.5266   13.4192 C.ar    1  UNL1        0.1000
     38 C          10.6233  -28.8456   13.0174 C.ar    1  UNL1        0.0412
     39 C          11.7454  -29.5475   13.4288 C.ar    1  UNL1        0.1000
     40 N          12.6432  -28.9415   14.1880 N.ar    1  UNL1       -0.2485
@<TRIPOS>UNITY_ATOM_ATTR
34 1
charge -1
@<TRIPOS>BOND
     1     8    13   ar
     2     8     9   ar
     3     9    10   ar
     4    10    11   ar
     5    11    12   ar
     6    11     7    1
     7    12    13   ar
     8     7     3    1
     9     7    14    1
    10     3     4    2
    11     3     5   am
    12     5     1    1
    13     1    21    1
    14    21    22    2
    15    21    23    1
    16    23    25    1
    17    25    30   ar
    18    25    26   ar
    19    26    27   ar
    20    27    28   ar
    21    28    29   ar
    22    28    31    1
    23    29    30   ar
    24    31    32    2
    25    31    33    2
    26    31    34    1
    27    34    35    1
    28    35    40   ar
    29    35    36   ar
    30    36    37   ar
    31    37    38   ar
    32    38    39   ar
    33    39    40   ar
    34    14    15    1
    35    15    20   ar
    36    15    16   ar
    37    16    17   ar
    38    17    18   ar
    39    18    19   ar
    40    19    20   ar
    41     5     6    1
    42     1     2    1
    43    23    24    1
#	Name:			ZINC06273829
#	Creating user name:	trannguyen
#	Creation time:		Wed Dec  7 14:36:19 2022


#	Modifying user name:	trannguyen
#	Modification time:	Wed Dec  7 14:36:19 2022

@<TRIPOS>MOLECULE
ZINC06273829
 31 32 0 0 0
SMALL
GASTEIGER

@<TRIPOS>ATOM
      1 N          21.5725  -26.5734   12.9573 N.am    1  UNL1       -0.2058
      2 C          21.1126  -26.5319   14.2236 C.2     1  UNL1        0.2416
      3 O          21.2545  -27.4914   14.9522 O.2     1  UNL1       -0.2734
      4 H          21.4575  -25.7947   12.3660 H       1  UNL1        0.1773
      5 C          21.8764  -28.2299   11.3358 C.2     1  UNL1        0.1206
      6 N          22.2144  -27.7247   12.4827 N.2     1  UNL1       -0.1775
      7 C          23.4039  -29.3656    9.7263 C.ar    1  UNL1        0.1400
      8 C          24.0292  -30.5111    9.2614 C.ar    1  UNL1        0.0369
      9 C          23.8169  -31.7216    9.8935 C.ar    1  UNL1        0.0031
     10 C          22.9803  -31.7998   10.9940 C.ar    1  UNL1        0.0003
     11 C          22.3499  -30.6694   11.4699 C.ar    1  UNL1        0.0046
     12 C          22.5516  -29.4410   10.8364 C.ar    1  UNL1        0.0546
     13 O          23.6119  -28.1757    9.1058 O.3     1  UNL1       -0.4754
     14 C          24.8520  -28.0123    8.4147 C.3     1  UNL1        0.2054
     15 C          25.5888  -26.7921    8.9707 C.3     1  UNL1        0.0473
     16 C          25.5584  -26.7510   11.4686 C.3     1  UNL1        0.0001
     17 C          24.8488  -26.2670   10.2025 C.3     1  UNL1        0.0038
     18 C          20.4222  -25.2935   14.7342 C.3     1  UNL1        0.0963
     19 C          19.8826  -24.4862   13.5517 C.3     1  UNL1        0.0950
     20 C          19.8762  -23.0212   13.9048 C.2     1  UNL1        0.2266
     21 O          18.9840  -22.3044   13.5031 O.2     1  UNL1       -0.2748
     22 N          20.8619  -22.5073   14.6667 N.am    1  UNL1       -0.2842
     23 H          21.5409  -23.1019   15.0600 H       1  UNL1        0.1548
     24 C          20.9204  -21.1287   14.8989 C.ar    1  UNL1        0.0459
     25 C          21.3650  -20.2729   13.8994 C.ar    1  UNL1        0.0101
     26 C          21.4169  -18.9124   14.1301 C.ar    1  UNL1       -0.0206
     27 C          21.0364  -18.4027   15.3582 C.ar    1  UNL1       -0.0045
     28 C          20.5984  -19.2524   16.3570 C.ar    1  UNL1       -0.0034
     29 C          20.5395  -20.6139   16.1309 C.ar    1  UNL1       -0.0084
     30 C          20.0620  -21.5393   17.2202 C.3     1  UNL1        0.0323
     31 C          21.8946  -17.9826   13.0445 C.3     1  UNL1        0.0311
@<TRIPOS>BOND
     1    16    17    1
     2    17    15    1
     3    15    14    1
     4    14    13    1
     5    13     7    1
     6     7    12   ar
     7     7     8   ar
     8     8     9   ar
     9     9    10   ar
    10    10    11   ar
    11    11    12   ar
    12    12     5    1
    13     5     6    2
    14     6     1    1
    15     1     2   am
    16     2     3    2
    17     2    18    1
    18    18    19    1
    19    19    20    1
    20    20    21    2
    21    20    22   am
    22    22    24    1
    23    24    29   ar
    24    24    25   ar
    25    25    26   ar
    26    26    27   ar
    27    26    31    1
    28    27    28   ar
    29    28    29   ar
    30    29    30    1
    31     1     4    1
    32    22    23    1
#	Name:			ZINC06301345
#	Creating user name:	trannguyen
#	Creation time:		Wed Dec  7 14:36:20 2022


#	Modifying user name:	trannguyen
#	Modification time:	Wed Dec  7 14:36:20 2022

@<TRIPOS>MOLECULE
ZINC06301345
 39 42 0 0 0
SMALL
GASTEIGER

@<TRIPOS>ATOM
      1 N          18.7923  -23.6643   13.2154 N.4     1  UNL1        0.2826
      2 H          18.6597  -24.6665   13.3515 H       1  UNL1        0.2074
      3 C          17.5223  -22.9675   13.5089 C.3     1  UNL1        0.1379
      4 C          13.4151  -28.4939   17.5353 C.3     1  UNL1        0.0311
      5 C          14.3813  -27.5560   16.8586 C.ar    1  UNL1       -0.0207
      6 C          15.7473  -27.7372   17.0282 C.ar    1  UNL1       -0.0084
      7 C          16.6400  -26.8984   16.4238 C.ar    1  UNL1       -0.0208
      8 C          16.1740  -25.8473   15.6272 C.ar    1  UNL1        0.0117
      9 C          17.1031  -24.9301   14.9644 C.ar    1  UNL1        0.0073
     10 C          16.5937  -23.9293   14.2044 C.ar    1  UNL1        0.0885
     11 C          15.1969  -23.7855   14.0620 C.ar    1  UNL1        0.2591
     12 O          14.7601  -22.8797   13.3733 O.2     1  UNL1       -0.2673
     13 N          14.3360  -24.6227   14.6667 N.ar    1  UNL1       -0.3211
     14 C          14.7899  -25.6600   15.4532 C.ar    1  UNL1        0.0582
     15 C          13.8997  -26.5273   16.0785 C.ar    1  UNL1        0.0128
     16 C          18.1207  -27.1044   16.6147 C.3     1  UNL1        0.0311
     17 H          13.3676  -24.4932   14.5459 H       1  UNL1        0.1689
     18 C          19.1908  -23.4188   11.8133 C.3     1  UNL1        0.1382
     19 C          18.1102  -23.9838   10.8893 C.3     1  UNL1        0.1988
     20 O          18.1801  -25.4110   10.8912 O.3     1  UNL1       -0.3768
     21 H          19.0537  -25.6924   10.5769 H       1  UNL1        0.2107
     22 C          19.8513  -23.1914   14.1317 C.3     1  UNL1        0.1164
     23 C          20.4889  -24.3562   14.8443 C.ar    1  UNL1        0.2105
     24 N          20.8671  -25.4902   14.3070 N.ar    1  UNL1       -0.1069
     25 N          21.3655  -26.2260   15.2399 N.ar    1  UNL1       -0.0228
     26 N          21.3150  -25.5906   16.3585 N.ar    1  UNL1       -0.0427
     27 N          20.7859  -24.4316   16.1550 N.ar    1  UNL1       -0.2077
     28 C          20.5495  -23.3940   17.1618 C.3     1  UNL1        0.1571
     29 C          19.5370  -23.8872   18.1632 C.ar    1  UNL1        0.0024
     30 C          18.1984  -23.5833   17.9981 C.ar    1  UNL1        0.0008
     31 C          17.2676  -24.0390   18.9117 C.ar    1  UNL1        0.0366
     32 C          17.6786  -24.7926   20.0016 C.ar    1  UNL1        0.1387
     33 C          19.0231  -25.0915   20.1680 C.ar    1  UNL1        0.0366
     34 C          19.9492  -24.6382   19.2486 C.ar    1  UNL1        0.0008
     35 O          16.7656  -25.2378   20.9044 O.3     1  UNL1       -0.4714
     36 C          15.8479  -26.2388   20.4593 C.3     1  UNL1        0.2525
     37 C          20.9112  -22.4526   13.3122 C.3     1  UNL1        0.0572
     38 C          20.7169  -20.9431   13.4696 C.3     1  UNL1        0.0064
     39 C          22.3043  -22.8423   13.8103 C.3     1  UNL1        0.0064
@<TRIPOS>UNITY_ATOM_ATTR
1 1
charge 1
@<TRIPOS>BOND
     1     4     5    1
     2     5    15   ar
     3     5     6   ar
     4     6     7   ar
     5     7     8   ar
     6     7    16    1
     7     8    14   ar
     8     8     9   ar
     9     9    10   ar
    10    10    11   ar
    11    10     3    1
    12    11    12    2
    13    11    13   ar
    14    13    14   ar
    15    14    15   ar
    16     3     1    1
    17    18    19    1
    18    18     1    1
    19    19    20    1
    20    22    23    1
    21    22    37    1
    22    22     1    1
    23    23    27   ar
    24    23    24   ar
    25    24    25   ar
    26    25    26   ar
    27    26    27   ar
    28    27    28    1
    29    28    29    1
    30    29    34   ar
    31    29    30   ar
    32    30    31   ar
    33    31    32   ar
    34    32    33   ar
    35    32    35    1
    36    33    34   ar
    37    35    36    1
    38    37    38    1
    39    37    39    1
    40    13    17    1
    41    20    21    1
    42     1     2    1
#	Name:			ZINC06332220
#	Creating user name:	trannguyen
#	Creation time:		Wed Dec  7 14:36:19 2022


#	Modifying user name:	trannguyen
#	Modification time:	Wed Dec  7 14:36:19 2022

@<TRIPOS>MOLECULE
ZINC06332220
 29 30 0 0 0
SMALL
GASTEIGER

@<TRIPOS>ATOM
      1 C          18.3525  -26.0229   14.0602 C.3     1  UNL1        0.0323
      2 C          19.8359  -25.9476   13.8052 C.ar    1  UNL1       -0.0061
      3 C          20.4420  -26.8765   12.9790 C.ar    1  UNL1       -0.0018
      4 C          21.8010  -26.8103   12.7434 C.ar    1  UNL1        0.0144
      5 C          22.5594  -25.8095   13.3370 C.ar    1  UNL1        0.0508
      6 C          21.9468  -24.8747   14.1612 C.ar    1  UNL1        0.0312
      7 C          20.5879  -24.9497   14.3973 C.ar    1  UNL1        0.0865
      8 S          19.8107  -23.7684   15.4485 S.O2    1  UNL1       -0.0580
      9 O          19.2362  -24.4979   16.5242 O.2     1  UNL1       -0.1842
     10 O          19.0421  -22.9197   14.6071 O.2     1  UNL1       -0.1842
     11 N          21.0092  -22.8295   16.1001 N.pl3   1  UNL1       -0.5335
     12 C          20.8848  -21.4355   16.0988 C.ar    1  UNL1       -0.0775
     13 C          20.1486  -20.8020   17.0894 C.ar    1  UNL1       -0.0209
     14 C          20.0312  -19.4247   17.0886 C.ar    1  UNL1       -0.0017
     15 C          20.6376  -18.6764   16.0967 C.ar    1  UNL1        0.0030
     16 C          21.3687  -19.3015   15.1031 C.ar    1  UNL1        0.0350
     17 C          21.4950  -20.6807   15.0995 C.ar    1  UNL1        0.1167
     18 O          22.2131  -21.2968   14.1223 O.3     1  UNL1       -0.4733
     19 C          21.6705  -21.2652   12.8006 C.3     1  UNL1        0.2524
     20 N          23.9364  -25.7396   13.1004 N.am    1  UNL1       -0.2959
     21 H          24.5658  -26.1630   13.7280 H       1  UNL1        0.1539
     22 C          24.4013  -25.0926   12.0134 C.2     1  UNL1        0.1353
     23 S          24.7999  -23.4306   12.1117 S.2     1  UNL1       -0.0185
     24 N          24.5524  -25.7541   10.8488 N.am    1  UNL1       -0.3124
     25 H          24.3793  -25.2944    9.9956 H       1  UNL1        0.1487
     26 C          24.9744  -27.1570   10.8526 C.3     1  UNL1        0.1113
     27 C          24.2507  -27.9021    9.7607 C.2     1  UNL1       -0.0245
     28 C          24.6249  -27.7621    8.5132 C.2     1  UNL1       -0.0074
     29 C          23.0966  -28.8084   10.1041 C.3     1  UNL1        0.0281
@<TRIPOS>UNITY_ATOM_ATTR
11 1
charge -1
@<TRIPOS>BOND
     1     1     2    1
     2     2     7   ar
     3     2     3   ar
     4     3     4   ar
     5     4     5   ar
     6     5     6   ar
     7     5    20    1
     8     6     7   ar
     9     7     8    1
    10     8     9    2
    11     8    10    2
    12     8    11    1
    13    11    12    1
    14    12    17   ar
    15    12    13   ar
    16    13    14   ar
    17    14    15   ar
    18    15    16   ar
    19    16    17   ar
    20    17    18    1
    21    18    19    1
    22    20    22    1
    23    22    23    2
    24    22    24    1
    25    24    26    1
    26    26    27    1
    27    27    28    2
    28    27    29    1
    29    20    21    1
    30    24    25    1
#	Name:			ZINC06449823
#	Creating user name:	trannguyen
#	Creation time:		Wed Dec  7 14:36:20 2022


#	Modifying user name:	trannguyen
#	Modification time:	Wed Dec  7 14:36:20 2022

@<TRIPOS>MOLECULE
ZINC06449823
 30 31 0 0 0
SMALL
GASTEIGER

@<TRIPOS>ATOM
      1 C          20.8180  -23.9177   18.3152 C.2     1  UNL1        0.2416
      2 O          21.4505  -24.3048   17.3551 O.2     1  UNL1       -0.2734
      3 N          20.5980  -22.5996   18.4903 N.am    1  UNL1       -0.2058
      4 H          20.0846  -22.2855   19.2694 H       1  UNL1        0.1773
      5 N          21.0999  -21.6765   17.5637 N.2     1  UNL1       -0.1775
      6 C          20.3052  -21.1341   16.6924 C.2     1  UNL1        0.1206
      7 C          20.8332  -20.1630   15.7177 C.ar    1  UNL1        0.0547
      8 C          21.2625  -18.9036   16.1431 C.ar    1  UNL1        0.0046
      9 C          21.7607  -18.0017   15.2266 C.ar    1  UNL1        0.0003
     10 C          21.8325  -18.3369   13.8852 C.ar    1  UNL1        0.0031
     11 C          21.4057  -19.5776   13.4510 C.ar    1  UNL1        0.0370
     12 C          20.9025  -20.4958   14.3581 C.ar    1  UNL1        0.1405
     13 O          20.4828  -21.7153   13.9323 O.3     1  UNL1       -0.4706
     14 C          19.3241  -21.7471   13.0965 C.3     1  UNL1        0.2318
     15 C          18.5095  -22.9746   13.4139 C.2     1  UNL1        0.0207
     16 C          19.0909  -24.0336   13.9205 C.2     1  UNL1       -0.0011
     17 C          20.2782  -24.9107   19.3119 C.3     1  UNL1        0.0963
     18 C          18.9936  -24.3609   19.9351 C.3     1  UNL1        0.0950
     19 N          17.8312  -25.6630   18.1824 N.am    1  UNL1       -0.2839
     20 C          17.8412  -24.5841   18.9900 C.2     1  UNL1        0.2266
     21 O          16.9227  -23.7927   18.9561 O.2     1  UNL1       -0.2748
     22 H          18.6071  -26.2686   18.1605 H       1  UNL1        0.1549
     23 C          13.3167  -26.7175   14.9111 C.3     1  UNL1        0.0319
     24 C          14.5159  -26.4373   15.7797 C.ar    1  UNL1       -0.0112
     25 C          14.6410  -27.0636   17.0062 C.ar    1  UNL1       -0.0022
     26 C          15.7415  -26.8134   17.8022 C.ar    1  UNL1        0.0144
     27 C          16.7181  -25.9226   17.3753 C.ar    1  UNL1        0.0511
     28 C          16.5904  -25.2946   16.1438 C.ar    1  UNL1        0.0257
     29 C          15.4895  -25.5536   15.3486 C.ar    1  UNL1        0.0549
     30 CL         15.3283  -24.7692   13.8083 Cl      1  UNL1       -0.0825
@<TRIPOS>BOND
     1    23    24    1
     2    24    29   ar
     3    24    25   ar
     4    25    26   ar
     5    26    27   ar
     6    27    28   ar
     7    27    19    1
     8    28    29   ar
     9    29    30    1
    10    19    20   am
    11    20    21    2
    12    20    18    1
    13    18    17    1
    14    17     1    1
    15     1     2    2
    16     1     3   am
    17     3     5    1
    18     5     6    2
    19     6     7    1
    20     7    12   ar
    21     7     8   ar
    22     8     9   ar
    23     9    10   ar
    24    10    11   ar
    25    11    12   ar
    26    12    13    1
    27    13    14    1
    28    14    15    1
    29    15    16    2
    30    19    22    1
    31     3     4    1
#	Name:			ZINC06458914
#	Creating user name:	trannguyen
#	Creation time:		Wed Dec  7 14:36:19 2022


#	Modifying user name:	trannguyen
#	Modification time:	Wed Dec  7 14:36:19 2022

@<TRIPOS>MOLECULE
ZINC06458914
 45 48 0 0 0
SMALL
GASTEIGER

@<TRIPOS>ATOM
      1 C          17.3289  -24.4625   17.1566 C.3     1  UNL1        0.0703
      2 C          17.3817  -24.5650   15.6292 C.3     1  UNL1        0.1214
      3 C          16.0539  -25.1077   15.1486 C.2     1  UNL1        0.0467
      4 C          15.3175  -24.4674   14.2600 C.3     1  UNL1        0.0478
      5 N          15.6508  -26.3309   15.7021 N.2     1  UNL1       -0.2469
      6 C          15.9359  -26.5531   17.0324 C.2     1  UNL1        0.1122
      7 C          16.7264  -25.7080   17.7402 C.2     1  UNL1        0.0741
      8 C          20.5610  -22.8562   18.2731 C.ar    1  UNL1        0.1718
      9 C          19.2787  -23.0211   17.7745 C.ar    1  UNL1        0.0361
     10 C          18.7260  -24.2856   17.6935 C.ar    1  UNL1       -0.0136
     11 C          19.4540  -25.3889   18.0985 C.ar    1  UNL1       -0.0006
     12 C          20.7359  -25.2320   18.5915 C.ar    1  UNL1        0.0395
     13 C          21.2937  -23.9668   18.6808 C.ar    1  UNL1        0.1677
     14 O          22.5546  -23.8106   19.1660 O.3     1  UNL1       -0.5029
     15 H          22.9309  -22.9546   19.2260 H       1  UNL1        0.2923
     16 C          20.9582  -20.7608   17.2210 C.3     1  UNL1        0.2526
     17 O          21.1040  -21.6124   18.3592 O.3     1  UNL1       -0.4684
     18 C          18.4917  -25.4981   15.2191 C.2     1  UNL1        0.2316
     19 O          19.5889  -25.0551   14.9525 O.2     1  UNL1       -0.2744
     20 N          18.2652  -26.8249   15.1488 N.am    1  UNL1       -0.2836
     21 H          17.3596  -27.1787   15.3032 H       1  UNL1        0.1549
     22 C          19.3175  -27.6996   14.8561 C.ar    1  UNL1        0.0503
     23 C          19.6570  -27.9623   13.5354 C.ar    1  UNL1        0.0147
     24 C          20.6994  -28.8221   13.2498 C.ar    1  UNL1        0.0013
     25 C          21.3978  -29.4296   14.2773 C.ar    1  UNL1        0.0001
     26 C          21.0585  -29.1745   15.5933 C.ar    1  UNL1        0.0013
     27 C          20.0208  -28.3113   15.8856 C.ar    1  UNL1        0.0147
     28 C          16.9997  -26.0190   19.1110 C.1     1  UNL1        0.0984
     29 N          17.2164  -26.2659   20.1985 N.1     1  UNL1       -0.1911
     30 S          15.2572  -27.9685   17.8325 S.3     1  UNL1       -0.0848
     31 C          15.4388  -29.1932   16.5122 C.3     1  UNL1        0.1486
     32 C          14.1410  -29.3125   15.7556 C.2     1  UNL1        0.2375
     33 O          13.3470  -30.1818   16.0469 O.2     1  UNL1       -0.2738
     34 N          13.8626  -28.4533   14.7553 N.am    1  UNL1       -0.2830
     35 H          14.5360  -27.7937   14.4712 H       1  UNL1        0.1549
     36 C          12.6223  -28.4983   14.1237 C.ar    1  UNL1        0.0566
     37 C          12.3165  -29.5418   13.2603 C.ar    1  UNL1        0.0149
     38 C          11.0850  -29.5868   12.6387 C.ar    1  UNL1        0.0013
     39 C          10.1493  -28.5894   12.8623 C.ar    1  UNL1        0.0003
     40 C          10.4367  -27.5433   13.7116 C.ar    1  UNL1        0.0077
     41 C          11.6775  -27.4863   14.3521 C.ar    1  UNL1        0.0891
     42 C          11.9918  -26.3699   15.2615 C.2     1  UNL1        0.3425
     43 O          11.9806  -25.2275   14.8476 O.2     1  UNL1       -0.2448
     44 O          12.2916  -26.6159   16.5520 O.3     1  UNL1       -0.4413
     45 C          11.3838  -27.4785   17.2869 C.3     1  UNL1        0.2560
@<TRIPOS>BOND
     1    16    17    1
     2    17     8    1
     3     8    13   ar
     4     8     9   ar
     5     9    10   ar
     6    10    11   ar
     7    10     1    1
     8    11    12   ar
     9    12    13   ar
    10    13    14    1
    11     1     7    1
    12     1     2    1
    13     2     3    1
    14     2    18    1
    15     3     5    2
    16     3     4    1
    17     5     6    1
    18     6    30    1
    19     6     7    2
    20     7    28    1
    21    28    29    3
    22    30    31    1
    23    31    32    1
    24    32    33    2
    25    32    34   am
    26    34    36    1
    27    36    41   ar
    28    36    37   ar
    29    37    38   ar
    30    38    39   ar
    31    39    40   ar
    32    40    41   ar
    33    41    42    1
    34    42    43    2
    35    42    44    1
    36    44    45    1
    37    18    19    2
    38    18    20   am
    39    20    22    1
    40    22    27   ar
    41    22    23   ar
    42    23    24   ar
    43    24    25   ar
    44    25    26   ar
    45    26    27   ar
    46    14    15    1
    47    34    35    1
    48    20    21    1
#	Name:			ZINC06462149
#	Creating user name:	trannguyen
#	Creation time:		Wed Dec  7 14:36:19 2022


#	Modifying user name:	trannguyen
#	Modification time:	Wed Dec  7 14:36:19 2022

@<TRIPOS>MOLECULE
ZINC06462149
 45 48 0 0 0
SMALL
GASTEIGER

@<TRIPOS>ATOM
      1 N          20.0581  -23.8396   15.2778 N.am    1  UNL1       -0.2613
      2 C          20.9272  -23.2024   16.0873 C.2     1  UNL1        0.2585
      3 O          21.7651  -23.8373   16.7008 O.2     1  UNL1       -0.2692
      4 C          20.8634  -21.7464   16.2287 C.ar    1  UNL1        0.1153
      5 C          21.6381  -20.7626   15.6116 C.ar    1  UNL1        0.0765
      6 C          21.2753  -19.4737   16.0025 C.ar    1  UNL1        0.1554
      7 N          20.2957  -19.3147   16.8647 N.ar    1  UNL1       -0.2031
      8 S          19.7716  -20.7561   17.2279 S.2     1  UNL1        0.0190
      9 N          22.6565  -21.0367   14.7085 N.pl3   1  UNL1       -0.3551
     10 H          22.8666  -21.9688   14.4715 H       1  UNL1        0.1424
     11 H          23.1687  -20.2988   14.3053 H       1  UNL1        0.1424
     12 C          21.9834  -18.3021   15.4551 C.2     1  UNL1        0.2624
     13 O          22.7378  -17.6624   16.1624 O.2     1  UNL1       -0.2687
     14 N          21.7945  -17.9401   14.1707 N.am    1  UNL1       -0.3240
     15 H          21.1838  -18.4580   13.5980 H       1  UNL1        0.1453
     16 H          22.2674  -17.1578   13.8052 H       1  UNL1        0.1453
     17 C          20.0482  -25.3035   15.2211 C.3     1  UNL1        0.1767
     18 C          21.0675  -25.7741   14.2158 C.ar    1  UNL1        0.0229
     19 C          22.1334  -25.0859   13.7774 C.ar    1  UNL1        0.0701
     20 N          22.8325  -25.8359   12.8711 N.ar    1  UNL1       -0.3522
     21 C          22.2123  -27.0522   12.6925 C.ar    1  UNL1        0.0564
     22 C          21.0794  -27.0669   13.5269 C.ar    1  UNL1        0.0151
     23 C          20.2489  -28.1885   13.5540 C.ar    1  UNL1        0.0012
     24 C          20.5409  -29.2680   12.7685 C.ar    1  UNL1        0.0001
     25 C          21.6567  -29.2583   11.9434 C.ar    1  UNL1        0.0015
     26 C          22.4901  -28.1618   11.9012 C.ar    1  UNL1        0.0170
     27 H          23.6562  -25.5486   12.4148 H       1  UNL1        0.1660
     28 N          19.6416  -25.5269   17.6507 N.am    1  UNL1       -0.3059
     29 C          20.3878  -25.8611   16.5794 C.2     1  UNL1        0.2449
     30 O          21.3327  -26.6106   16.7083 O.2     1  UNL1       -0.2729
     31 H          18.9014  -24.8851   17.5542 H       1  UNL1        0.1494
     32 C          19.9321  -26.1188   18.9590 C.3     1  UNL1        0.0569
     33 C          19.6975  -27.6295   18.8987 C.3     1  UNL1        0.0196
     34 C          21.3904  -25.8437   19.3310 C.3     1  UNL1        0.0196
     35 C          18.3414  -24.2525   19.4379 C.3     1  UNL1        0.0017
     36 C          19.0116  -25.5015   20.0138 C.3     1  UNL1        0.0180
     37 C          19.1235  -23.0683   14.4545 C.3     1  UNL1        0.1242
     38 C          17.9070  -23.9064   14.1566 C.ar    1  UNL1        0.0317
     39 C          17.0309  -24.2389   15.1719 C.ar    1  UNL1        0.0004
     40 C          15.9123  -25.0037   14.8983 C.ar    1  UNL1       -0.0001
     41 C          15.6726  -25.4465   13.6103 C.ar    1  UNL1        0.0031
     42 C          16.5481  -25.1210   12.5928 C.ar    1  UNL1        0.0366
     43 C          17.6688  -24.3492   12.8638 C.ar    1  UNL1        0.1363
     44 O          18.5320  -24.0281   11.8645 O.3     1  UNL1       -0.4717
     45 C          17.9618  -23.5699   10.6369 C.3     1  UNL1        0.2525
@<TRIPOS>BOND
     1    35    36    1
     2    36    32    1
     3    32    33    1
     4    32    34    1
     5    32    28    1
     6    28    29   am
     7    29    30    2
     8    29    17    1
     9    17    18    1
    10    17     1    1
    11    18    22   ar
    12    18    19   ar
    13    19    20   ar
    14    20    21   ar
    15    21    26   ar
    16    21    22   ar
    17    22    23   ar
    18    23    24   ar
    19    24    25   ar
    20    25    26   ar
    21     1    37    1
    22     1     2   am
    23    37    38    1
    24    38    43   ar
    25    38    39   ar
    26    39    40   ar
    27    40    41   ar
    28    41    42   ar
    29    42    43   ar
    30    43    44    1
    31    44    45    1
    32     2     3    2
    33     2     4    1
    34     4     8   ar
    35     4     5   ar
    36     5     6   ar
    37     5     9    1
    38     6     7   ar
    39     6    12    1
    40     7     8   ar
    41    12    13    2
    42    12    14   am
    43    28    31    1
    44    20    27    1
    45    14    15    1
    46    14    16    1
    47     9    10    1
    48     9    11    1
#	Name:			ZINC06472007
#	Creating user name:	trannguyen
#	Creation time:		Wed Dec  7 14:36:19 2022


#	Modifying user name:	trannguyen
#	Modification time:	Wed Dec  7 14:36:19 2022

@<TRIPOS>MOLECULE
ZINC06472007
 45 48 0 0 0
SMALL
GASTEIGER

@<TRIPOS>ATOM
      1 C          18.1429  -26.4981   17.2409 C.3     1  UNL1        0.1611
      2 C          18.9292  -27.7114   17.6962 C.2     1  UNL1        0.2529
      3 O          18.5794  -28.8713   17.6477 O.2     1  UNL1       -0.2724
      4 N          20.0984  -27.2328   18.1653 N.am    1  UNL1       -0.2186
      5 C          20.1595  -25.8997   18.0707 C.2     1  UNL1        0.1479
      6 S          21.5057  -24.9704   18.5758 S.2     1  UNL1       -0.0177
      7 N          19.0450  -25.3710   17.5339 N.am    1  UNL1       -0.2835
      8 C          21.1237  -28.0328   18.6884 C.ar    1  UNL1        0.0597
      9 C          21.0760  -28.4464   20.0129 C.ar    1  UNL1        0.0153
     10 C          22.0856  -29.2382   20.5243 C.ar    1  UNL1        0.0013
     11 C          23.1480  -29.6109   19.7214 C.ar    1  UNL1        0.0001
     12 C          23.2006  -29.1964   18.4033 C.ar    1  UNL1        0.0013
     13 C          22.1916  -28.4084   17.8848 C.ar    1  UNL1        0.0153
     14 C          16.8434  -26.3688   18.0381 C.3     1  UNL1        0.1145
     15 N          15.4708  -26.2888   15.9819 N.am    1  UNL1       -0.2839
     16 C          15.6870  -26.8382   17.1934 C.2     1  UNL1        0.2283
     17 O          14.9509  -27.7105   17.6038 O.2     1  UNL1       -0.2747
     18 H          16.1096  -25.6346   15.6169 H       1  UNL1        0.1549
     19 C          12.0966  -27.3589   13.7781 C.ar    1  UNL1        0.1386
     20 C          13.2890  -28.0443   13.5971 C.ar    1  UNL1        0.0382
     21 C          14.4066  -27.6907   14.3269 C.ar    1  UNL1        0.0178
     22 C          14.3369  -26.6486   15.2417 C.ar    1  UNL1        0.0505
     23 C          13.1431  -25.9629   15.4224 C.ar    1  UNL1        0.0178
     24 C          12.0262  -26.3178   14.6923 C.ar    1  UNL1        0.0382
     25 O          10.9950  -27.7111   13.0632 O.3     1  UNL1       -0.4755
     26 C          10.4418  -29.0037   13.3187 C.3     1  UNL1        0.2054
     27 C           9.2209  -28.8649   14.2302 C.3     1  UNL1        0.0473
     28 C           9.6594  -28.9820   15.6913 C.3     1  UNL1        0.0038
     29 C          10.7687  -30.0292   15.8086 C.3     1  UNL1        0.0001
     30 C          11.2127  -28.4014   17.6513 C.3     1  UNL1        0.0000
     31 C          11.7840  -29.5808   16.8617 C.3     1  UNL1        0.0000
     32 C          18.7803  -23.9512   17.2881 C.3     1  UNL1        0.0975
     33 C          19.1696  -23.6012   15.8505 C.3     1  UNL1        0.0478
     34 C          19.7873  -22.2270   15.8177 C.ar    1  UNL1       -0.0204
     35 C          20.2417  -21.7019   14.6224 C.ar    1  UNL1       -0.0028
     36 C          20.8044  -20.4396   14.5915 C.ar    1  UNL1        0.0196
     37 C          20.9208  -19.7060   15.7573 C.ar    1  UNL1        0.1217
     38 C          20.4711  -20.2333   16.9535 C.ar    1  UNL1        0.0196
     39 C          19.9046  -21.4939   16.9836 C.ar    1  UNL1       -0.0028
     40 S          21.6419  -18.0988   15.7187 S.O2    1  UNL1        0.0572
     41 O          20.6139  -17.1840   16.0729 O.2     1  UNL1       -0.1532
     42 O          22.8654  -18.1853   16.4362 O.2     1  UNL1       -0.1532
     43 N          22.0387  -17.7780   14.1433 N.3     1  UNL1       -0.2035
     44 H          21.1874  -17.7066   13.5860 H       1  UNL1        0.1442
     45 H          22.6213  -18.5319   13.7791 H       1  UNL1        0.1442
@<TRIPOS>BOND
     1    30    31    1
     2    31    29    1
     3    29    28    1
     4    28    27    1
     5    27    26    1
     6    26    25    1
     7    25    19    1
     8    19    24   ar
     9    19    20   ar
    10    20    21   ar
    11    21    22   ar
    12    22    23   ar
    13    22    15    1
    14    23    24   ar
    15    15    16   am
    16    16    17    2
    17    16    14    1
    18    14     1    1
    19     1     7    1
    20     1     2    1
    21     2     3    2
    22     2     4   am
    23     4     5    1
    24     4     8    1
    25     5     6    2
    26     5     7    1
    27     7    32    1
    28    32    33    1
    29    33    34    1
    30    34    39   ar
    31    34    35   ar
    32    35    36   ar
    33    36    37   ar
    34    37    38   ar
    35    37    40    1
    36    38    39   ar
    37    40    41    2
    38    40    42    2
    39    40    43    1
    40     8    13   ar
    41     8     9   ar
    42     9    10   ar
    43    10    11   ar
    44    11    12   ar
    45    12    13   ar
    46    15    18    1
    47    43    44    1
    48    43    45    1
#	Name:			ZINC06488750
#	Creating user name:	trannguyen
#	Creation time:		Wed Dec  7 14:36:19 2022


#	Modifying user name:	trannguyen
#	Modification time:	Wed Dec  7 14:36:19 2022

@<TRIPOS>MOLECULE
ZINC06488750
 45 49 0 0 0
SMALL
GASTEIGER

@<TRIPOS>ATOM
      1 C          20.7518  -23.1203   15.4131 C.2     1  UNL1        0.0959
      2 C          20.8955  -22.2994   16.5252 C.2     1  UNL1        0.0877
      3 N          21.0607  -22.8362   17.7373 N.2     1  UNL1       -0.2223
      4 C          21.1065  -24.1189   17.9843 C.ar    1  UNL1        0.1782
      5 N          20.9904  -25.0987   17.0249 N.ar    1  UNL1       -0.2688
      6 C          21.0543  -26.3817   17.4066 C.ar    1  UNL1        0.2688
      7 O          20.9571  -27.2827   16.5942 O.2     1  UNL1       -0.2664
      8 C          21.2458  -26.6684   18.8348 C.ar    1  UNL1        0.0884
      9 C          21.3427  -27.8651   19.4695 C.2     1  UNL1        0.0114
     10 S          21.3167  -25.0167   19.5100 S.2     1  UNL1       -0.0455
     11 C          20.8015  -24.6155   15.6283 C.3     1  UNL1        0.1461
     12 C          21.4250  -29.1055   18.6886 C.ar    1  UNL1        0.0008
     13 C          20.2644  -29.8374   18.4072 C.ar    1  UNL1        0.0031
     14 C          20.3470  -30.9970   17.6701 C.ar    1  UNL1        0.0369
     15 C          21.5808  -31.4483   17.2152 C.ar    1  UNL1        0.1393
     16 C          22.7366  -30.7288   17.4961 C.ar    1  UNL1        0.0369
     17 C          22.6652  -29.5647   18.2274 C.ar    1  UNL1        0.0031
     18 O          21.6571  -32.5956   16.4935 O.3     1  UNL1       -0.4656
     19 C          22.4690  -32.5698   15.3178 C.3     1  UNL1        0.2891
     20 C          21.7262  -31.8689   14.2097 C.2     1  UNL1        0.2639
     21 O          22.1978  -30.8763   13.6966 O.2     1  UNL1       -0.2713
     22 N          20.5375  -32.3449   13.7889 N.am    1  UNL1       -0.3258
     23 H          20.1546  -33.1507   14.2054 H       1  UNL1        0.1451
     24 H          20.0522  -31.8869   13.0651 H       1  UNL1        0.1451
     25 C          19.5119  -25.1963   15.1082 C.ar    1  UNL1        0.0398
     26 C          18.3287  -24.9666   15.7835 C.ar    1  UNL1        0.0378
     27 C          17.1419  -25.5006   15.3046 C.ar    1  UNL1        0.1387
     28 C          17.1427  -26.2656   14.1475 C.ar    1  UNL1        0.0400
     29 C          18.3254  -26.4949   13.4720 C.ar    1  UNL1        0.0398
     30 C          19.5118  -25.9567   13.9485 C.ar    1  UNL1        0.1370
     31 O          20.6754  -26.1782   13.2807 O.3     1  UNL1       -0.4717
     32 C          21.0173  -27.5383   13.0063 C.3     1  UNL1        0.2525
     33 O          15.9774  -25.2741   15.9691 O.3     1  UNL1       -0.4714
     34 C          14.8368  -24.9292   15.1803 C.3     1  UNL1        0.2525
     35 C          20.8594  -20.8277   16.3673 C.ar    1  UNL1        0.0177
     36 C          19.8553  -20.0814   16.9847 C.ar    1  UNL1        0.0015
     37 C          19.8297  -18.7098   16.8374 C.ar    1  UNL1        0.0000
     38 C          20.7914  -18.0754   16.0713 C.ar    1  UNL1        0.0000
     39 C          21.7867  -18.8104   15.4522 C.ar    1  UNL1        0.0000
     40 C          21.8261  -20.1820   15.5958 C.ar    1  UNL1        0.0015
     41 C          20.5715  -22.5798   14.1341 C.2     1  UNL1        0.3408
     42 O          21.4847  -22.6051   13.3276 O.2     1  UNL1       -0.2451
     43 O          19.3848  -22.0302   13.7940 O.3     1  UNL1       -0.4456
     44 C          17.2699  -22.8023   12.9156 C.3     1  UNL1        0.0513
     45 C          18.7475  -22.5376   12.6199 C.3     1  UNL1        0.2089
@<TRIPOS>BOND
     1    44    45    1
     2    45    43    1
     3    43    41    1
     4    41    42    2
     5    41     1    1
     6     1    11    1
     7     1     2    2
     8     2     3    1
     9     2    35    1
    10     3     4    2
    11     4    10   ar
    12     4     5   ar
    13     5     6   ar
    14     5    11    1
    15     6     7    2
    16     6     8   ar
    17     8     9    2
    18     8    10   ar
    19     9    12    1
    20    12    17   ar
    21    12    13   ar
    22    13    14   ar
    23    14    15   ar
    24    15    16   ar
    25    15    18    1
    26    16    17   ar
    27    18    19    1
    28    19    20    1
    29    20    21    2
    30    20    22   am
    31    11    25    1
    32    25    30   ar
    33    25    26   ar
    34    26    27   ar
    35    27    28   ar
    36    27    33    1
    37    28    29   ar
    38    29    30   ar
    39    30    31    1
    40    31    32    1
    41    33    34    1
    42    35    40   ar
    43    35    36   ar
    44    36    37   ar
    45    37    38   ar
    46    38    39   ar
    47    39    40   ar
    48    22    23    1
    49    22    24    1
#	Name:			ZINC06501978
#	Creating user name:	trannguyen
#	Creation time:		Wed Dec  7 14:36:19 2022


#	Modifying user name:	trannguyen
#	Modification time:	Wed Dec  7 14:36:19 2022

@<TRIPOS>MOLECULE
ZINC06501978
 32 35 0 0 0
SMALL
GASTEIGER

@<TRIPOS>ATOM
      1 C          21.8327  -24.9190   14.1000 C.2     1  UNL1        0.0483
      2 C          21.0130  -25.4915   14.9702 C.2     1  UNL1        0.0171
      3 C          20.1365  -24.7159   15.9157 C.3     1  UNL1        0.1563
      4 N          20.5384  -23.3124   15.9194 N.ar    1  UNL1       -0.2143
      5 C          21.3863  -22.7684   15.0124 C.ar    1  UNL1        0.2194
      6 N          21.5233  -21.5022   15.2959 N.ar    1  UNL1       -0.1972
      7 C          20.7895  -21.2037   16.3734 C.ar    1  UNL1        0.1617
      8 N          20.1728  -22.2829   16.7870 N.ar    1  UNL1       -0.1516
      9 N          21.9527  -23.5266   13.9986 N.pl3   1  UNL1       -0.2829
     10 H          22.4188  -23.1050   13.2407 H       1  UNL1        0.1550
     11 C          24.9968  -28.2536   10.6344 C.3     1  UNL1        0.0310
     12 C          24.1684  -27.3805   11.5412 C.ar    1  UNL1       -0.0218
     13 C          22.8572  -27.7235   11.8185 C.ar    1  UNL1       -0.0042
     14 C          22.0940  -26.9284   12.6489 C.ar    1  UNL1        0.0009
     15 C          22.6468  -25.7769   13.2084 C.ar    1  UNL1        0.0132
     16 C          23.9673  -25.4333   12.9205 C.ar    1  UNL1        0.0009
     17 C          24.7223  -26.2394   12.0934 C.ar    1  UNL1       -0.0042
     18 C          18.7006  -24.8249   15.4717 C.ar    1  UNL1        0.0383
     19 C          18.3905  -24.8016   14.1252 C.ar    1  UNL1        0.0040
     20 C          17.0745  -24.8952   13.7153 C.ar    1  UNL1        0.0369
     21 C          16.0608  -25.0187   14.6552 C.ar    1  UNL1        0.1417
     22 C          16.3696  -25.0481   16.0062 C.ar    1  UNL1        0.0735
     23 C          17.6912  -24.9540   16.4150 C.ar    1  UNL1        0.1398
     24 O          17.9972  -24.9825   17.7388 O.3     1  UNL1       -0.4716
     25 C          16.9403  -24.6911   18.6554 C.3     1  UNL1        0.2525
     26 O          14.7665  -25.1111   14.2513 O.3     1  UNL1       -0.4713
     27 C          14.1575  -26.4022   14.3156 C.3     1  UNL1        0.2525
     28 C          20.6877  -19.8417   17.0103 C.3     1  UNL1        0.0702
     29 C          20.6593  -18.7692   15.9194 C.3     1  UNL1        0.0398
     30 C          21.9902  -18.0146   15.9113 C.3     1  UNL1        0.1376
     31 O          21.8551  -16.8026   16.6563 O.3     1  UNL1       -0.3820
     32 H          21.1676  -16.2500   16.2529 H       1  UNL1        0.2104
@<TRIPOS>BOND
     1    11    12    1
     2    12    17   ar
     3    12    13   ar
     4    13    14   ar
     5    14    15   ar
     6    15    16   ar
     7    15     1    1
     8    16    17   ar
     9     1     9    1
    10     1     2    2
    11     2     3    1
    12     3     4    1
    13     3    18    1
    14     4     8   ar
    15     4     5   ar
    16     5     6   ar
    17     5     9    1
    18     6     7   ar
    19     7     8   ar
    20     7    28    1
    21    28    29    1
    22    29    30    1
    23    30    31    1
    24    18    23   ar
    25    18    19   ar
    26    19    20   ar
    27    20    21   ar
    28    21    22   ar
    29    21    26    1
    30    22    23   ar
    31    23    24    1
    32    24    25    1
    33    26    27    1
    34    31    32    1
    35     9    10    1
#	Name:			ZINC06511955
#	Creating user name:	trannguyen
#	Creation time:		Wed Dec  7 14:36:19 2022


#	Modifying user name:	trannguyen
#	Modification time:	Wed Dec  7 14:36:19 2022

@<TRIPOS>MOLECULE
ZINC06511955
 48 52 0 0 0
SMALL
GASTEIGER

@<TRIPOS>ATOM
      1 N          20.6772  -23.7258   14.5006 N.am    1  UNL1       -0.2464
      2 C          19.4751  -23.2066   14.1811 C.2     1  UNL1        0.2548
      3 O          19.0352  -22.2658   14.8073 O.2     1  UNL1       -0.2723
      4 C          22.2639  -26.8479   12.2441 C.ar    1  UNL1        0.1223
      5 C          23.0886  -25.8329   12.6934 C.ar    1  UNL1        0.0212
      6 C          22.5656  -24.7965   13.4417 C.ar    1  UNL1        0.0163
      7 C          21.2101  -24.7744   13.7427 C.ar    1  UNL1        0.0547
      8 C          20.3857  -25.7982   13.2949 C.ar    1  UNL1        0.0163
      9 C          20.9137  -26.8287   12.5418 C.ar    1  UNL1        0.0212
     10 S          22.9350  -28.1683   11.2898 S.O2    1  UNL1        0.0633
     11 O          23.2412  -29.2139   12.2020 O.2     1  UNL1       -0.1528
     12 O          22.0629  -28.3537   10.1832 O.2     1  UNL1       -0.1528
     13 N          24.3783  -27.6416   10.6718 N.3     1  UNL1       -0.1555
     14 C          25.5034  -26.8882    8.6352 C.3     1  UNL1        0.0206
     15 C          24.3983  -26.5912    9.6507 C.3     1  UNL1        0.0958
     16 C          25.6351  -28.2261   11.1461 C.3     1  UNL1        0.0958
     17 C          26.3130  -27.2579   12.1178 C.3     1  UNL1        0.0206
     18 C          21.4257  -23.1923   15.6413 C.3     1  UNL1        0.1786
     19 C          21.3135  -21.6896   15.6574 C.ar    1  UNL1        0.0080
     20 C          20.7219  -21.0536   16.7330 C.ar    1  UNL1        0.0011
     21 C          20.6216  -19.6750   16.7551 C.ar    1  UNL1        0.0395
     22 C          21.1045  -18.9282   15.6925 C.ar    1  UNL1        0.1675
     23 C          21.6948  -19.5686   14.6073 C.ar    1  UNL1        0.1672
     24 C          21.7972  -20.9505   14.5941 C.ar    1  UNL1        0.0376
     25 O          22.1706  -18.8400   13.5622 O.3     1  UNL1       -0.5029
     26 O          21.0011  -17.5723   15.7099 O.3     1  UNL1       -0.5029
     27 H          22.1008  -17.9057   13.5722 H       1  UNL1        0.2923
     28 H          20.6033  -17.1421   16.4412 H       1  UNL1        0.2923
     29 C          20.8585  -23.7521   16.9204 C.2     1  UNL1        0.2452
     30 O          21.5875  -23.9600   17.8671 O.2     1  UNL1       -0.2729
     31 N          19.5412  -24.0214   17.0123 N.am    1  UNL1       -0.3043
     32 H          18.9494  -23.8524   16.2438 H       1  UNL1        0.1494
     33 C          18.9897  -24.5656   18.2557 C.3     1  UNL1        0.0716
     34 C          18.8977  -26.0891   18.1491 C.3     1  UNL1        0.0196
     35 C          18.3219  -26.6574   19.4478 C.3     1  UNL1        0.0017
     36 C          16.9258  -26.0773   19.6833 C.3     1  UNL1        0.0001
     37 C          17.0178  -24.5539   19.7899 C.3     1  UNL1        0.0017
     38 C          17.5937  -23.9855   18.4913 C.3     1  UNL1        0.0196
     39 C          18.6778  -23.7952   13.0457 C.3     1  UNL1        0.2141
     40 N          17.2621  -23.8468   13.4186 N.ar    1  UNL1       -0.2223
     41 C          16.6664  -24.7530   14.2634 C.ar    1  UNL1        0.0994
     42 C          17.1315  -25.8355   15.0027 C.ar    1  UNL1        0.0204
     43 C          16.2604  -26.5616   15.7654 C.ar    1  UNL1        0.0016
     44 C          14.9145  -26.2222   15.8177 C.ar    1  UNL1        0.0017
     45 C          14.4343  -25.1621   15.1061 C.ar    1  UNL1        0.0225
     46 C          15.3055  -24.4043   14.3120 C.ar    1  UNL1        0.1217
     47 N          15.1299  -23.3297   13.5175 N.ar    1  UNL1       -0.1288
     48 N          16.2473  -22.9812   12.9839 N.ar    1  UNL1       -0.0634
@<TRIPOS>BOND
     1    14    15    1
     2    15    13    1
     3    13    16    1
     4    13    10    1
     5    16    17    1
     6    10    11    2
     7    10    12    2
     8    10     4    1
     9     4     9   ar
    10     4     5   ar
    11     5     6   ar
    12     6     7   ar
    13     7     8   ar
    14     7     1    1
    15     8     9   ar
    16     1    18    1
    17     1     2   am
    18    18    19    1
    19    18    29    1
    20    19    24   ar
    21    19    20   ar
    22    20    21   ar
    23    21    22   ar
    24    22    23   ar
    25    22    26    1
    26    23    24   ar
    27    23    25    1
    28    29    30    2
    29    29    31   am
    30    31    33    1
    31    33    38    1
    32    33    34    1
    33    34    35    1
    34    35    36    1
    35    36    37    1
    36    37    38    1
    37     2     3    2
    38     2    39    1
    39    39    40    1
    40    40    48   ar
    41    40    41   ar
    42    41    46   ar
    43    41    42   ar
    44    42    43   ar
    45    43    44   ar
    46    44    45   ar
    47    45    46   ar
    48    46    47   ar
    49    47    48   ar
    50    25    27    1
    51    26    28    1
    52    31    32    1
#	Name:			ZINC06585087
#	Creating user name:	trannguyen
#	Creation time:		Wed Dec  7 14:36:19 2022


#	Modifying user name:	trannguyen
#	Modification time:	Wed Dec  7 14:36:19 2022

@<TRIPOS>MOLECULE
ZINC06585087
 19 21 0 0 0
SMALL
GASTEIGER

@<TRIPOS>ATOM
      1 C          21.7102  -18.6625   13.2429 C.ar    1  UNL1        0.2030
      2 N          22.0858  -17.8832   14.2289 N.ar    1  UNL1       -0.1842
      3 C          22.1041  -18.3126   15.5024 C.ar    1  UNL1        0.2996
      4 O          22.4543  -17.5817   16.4151 O.2     1  UNL1       -0.2634
      5 C          21.6836  -19.7004   15.7500 C.ar    1  UNL1        0.1522
      6 N          21.5624  -20.4759   16.8014 N.ar    1  UNL1       -0.3463
      7 N          21.1413  -21.6447   16.4668 N.ar    1  UNL1       -0.5114
      8 N          20.9448  -21.7189   15.0789 N.ar    1  UNL1       -0.4042
      9 C          21.2764  -20.4890   14.5769 C.ar    1  UNL1        0.1500
     10 N          21.3201  -19.9171   13.3894 N.ar    1  UNL1       -0.2062
     11 C          20.4728  -22.8794   14.3194 C.3     1  UNL1        0.0910
     12 C          19.3572  -22.4460   13.3682 C.3     1  UNL1        0.0285
     13 C          18.6995  -23.7018   12.7822 C.3     1  UNL1        0.0358
     14 C          17.9703  -24.4368   13.9089 C.3     1  UNL1        0.0283
     15 C          18.8795  -24.6029   15.0911 C.2     1  UNL1       -0.0288
     16 C          19.9670  -23.9241   15.2706 C.2     1  UNL1       -0.0100
     17 C          17.6979  -23.2994   11.6979 C.3     1  UNL1        0.1375
     18 O          18.4042  -22.8941   10.5236 O.3     1  UNL1       -0.3820
     19 H          18.9742  -22.1380   10.7339 H       1  UNL1        0.2104
@<TRIPOS>UNITY_ATOM_ATTR
7 1
charge -1
@<TRIPOS>BOND
     1     1    10   ar
     2     1     2   ar
     3     2     3   ar
     4     3     4    2
     5     3     5   ar
     6     5     9    1
     7     5     6   ar
     8     6     7   ar
     9     7     8   ar
    10     8     9   ar
    11     8    11    1
    12     9    10   ar
    13    11    16    1
    14    11    12    1
    15    12    13    1
    16    13    14    1
    17    13    17    1
    18    14    15    1
    19    15    16    2
    20    17    18    1
    21    18    19    1
#	Name:			ZINC06601669
#	Creating user name:	trannguyen
#	Creation time:		Wed Dec  7 14:36:20 2022


#	Modifying user name:	trannguyen
#	Modification time:	Wed Dec  7 14:36:20 2022

@<TRIPOS>MOLECULE
ZINC06601669
 45 48 0 0 0
SMALL
GASTEIGER

@<TRIPOS>ATOM
      1 N          20.2033  -24.7156   16.4409 N.am    1  UNL1       -0.2440
      2 C          20.7735  -25.9351   16.3759 C.2     1  UNL1        0.2620
      3 O          21.3786  -26.3760   17.3357 O.2     1  UNL1       -0.2689
      4 C          19.5098  -24.2102   15.3410 C.ar    1  UNL1        0.0548
      5 C          20.1649  -23.4526   14.3939 C.ar    1  UNL1        0.0149
      6 C          19.4822  -22.9431   13.2936 C.ar    1  UNL1        0.0013
      7 C          18.1520  -23.1777   13.1212 C.ar    1  UNL1        0.0001
      8 C          17.4471  -23.9457   14.0634 C.ar    1  UNL1        0.0012
      9 C          18.1310  -24.4696   15.1882 C.ar    1  UNL1        0.0137
     10 C          17.4254  -25.2364   16.1286 C.ar    1  UNL1        0.0012
     11 C          16.0956  -25.4670   15.9487 C.ar    1  UNL1        0.0000
     12 C          15.4217  -24.9516   14.8432 C.ar    1  UNL1        0.0000
     13 C          16.0738  -24.2042   13.9112 C.ar    1  UNL1        0.0000
     14 C          20.6653  -26.7293   15.1509 C.ar    1  UNL1        0.1156
     15 C          21.5446  -26.8124   14.0695 C.ar    1  UNL1        0.0765
     16 C          21.0944  -27.6881   13.0815 C.ar    1  UNL1        0.1554
     17 N          19.9471  -28.3086   13.2458 N.ar    1  UNL1       -0.2031
     18 S          19.3733  -27.8421   14.6376 S.2     1  UNL1        0.0190
     19 N          22.7365  -26.1048   13.9883 N.pl3   1  UNL1       -0.3551
     20 H          23.0010  -25.5005   14.7191 H       1  UNL1        0.1424
     21 H          23.3171  -26.2074   13.1999 H       1  UNL1        0.1424
     22 C          21.8937  -27.9103   11.8625 C.2     1  UNL1        0.2624
     23 O          22.7938  -27.1439   11.5776 O.2     1  UNL1       -0.2687
     24 N          21.6267  -28.9629   11.0642 N.am    1  UNL1       -0.3240
     25 H          20.8980  -29.5834   11.2950 H       1  UNL1        0.1453
     26 H          22.1604  -29.1112   10.2503 H       1  UNL1        0.1453
     27 C          20.3116  -23.9209   17.6669 C.3     1  UNL1        0.1787
     28 C          17.2449  -25.0955   20.4014 C.ar    1  UNL1        0.1385
     29 C          17.0475  -24.0101   19.5603 C.ar    1  UNL1        0.0366
     30 C          18.0404  -23.6322   18.6774 C.ar    1  UNL1        0.0009
     31 C          19.2302  -24.3350   18.6313 C.ar    1  UNL1        0.0050
     32 C          19.4273  -25.4207   19.4645 C.ar    1  UNL1        0.0009
     33 C          18.4399  -25.7988   20.3534 C.ar    1  UNL1        0.0366
     34 O          16.2695  -25.4696   21.2705 O.3     1  UNL1       -0.4755
     35 C          14.7760  -26.9178   20.0405 C.3     1  UNL1        0.0512
     36 C          15.7967  -26.8148   21.1755 C.3     1  UNL1        0.2055
     37 C          20.1548  -22.4594   17.3336 C.2     1  UNL1        0.2452
     38 O          19.0656  -21.9323   17.4159 O.2     1  UNL1       -0.2729
     39 N          21.2248  -21.7385   16.9440 N.am    1  UNL1       -0.3027
     40 H          22.1088  -22.1665   16.8771 H       1  UNL1        0.1495
     41 C          21.0723  -20.3179   16.6200 C.3     1  UNL1        0.0894
     42 C          21.1923  -20.1242   15.1071 C.3     1  UNL1        0.0212
     43 C          21.2562  -18.6292   14.7879 C.3     1  UNL1        0.0017
     44 C          22.1889  -17.9348   15.7824 C.3     1  UNL1        0.0001
     45 C          21.7889  -18.4334   13.3671 C.3     1  UNL1        0.0001
@<TRIPOS>BOND
     1    35    36    1
     2    36    34    1
     3    34    28    1
     4    28    33   ar
     5    28    29   ar
     6    29    30   ar
     7    30    31   ar
     8    31    32   ar
     9    31    27    1
    10    32    33   ar
    11    27    37    1
    12    27     1    1
    13    37    38    2
    14    37    39   am
    15    39    41    1
    16    41    42    1
    17    42    43    1
    18    43    44    1
    19    43    45    1
    20     1     4    1
    21     1     2   am
    22     4     9   ar
    23     4     5   ar
    24     5     6   ar
    25     6     7   ar
    26     7     8   ar
    27     8    13   ar
    28     8     9   ar
    29     9    10   ar
    30    10    11   ar
    31    11    12   ar
    32    12    13   ar
    33     2     3    2
    34     2    14    1
    35    14    18   ar
    36    14    15   ar
    37    15    16   ar
    38    15    19    1
    39    16    17   ar
    40    16    22    1
    41    17    18   ar
    42    22    23    2
    43    22    24   am
    44    39    40    1
    45    24    25    1
    46    24    26    1
    47    19    20    1
    48    19    21    1
#	Name:			ZINC06635576
#	Creating user name:	trannguyen
#	Creation time:		Wed Dec  7 14:36:19 2022


#	Modifying user name:	trannguyen
#	Modification time:	Wed Dec  7 14:36:19 2022

@<TRIPOS>MOLECULE
ZINC06635576
 30 32 0 0 0
SMALL
GASTEIGER

@<TRIPOS>ATOM
      1 C          15.8694  -25.3712   14.2201 C.2     1  UNL1        0.1946
      2 O          16.1018  -24.8007   15.2650 O.2     1  UNL1       -0.2776
      3 N          16.7135  -25.2388   13.1778 N.am    1  UNL1       -0.2860
      4 H          16.5576  -25.7486   12.3502 H       1  UNL1        0.1548
      5 C          17.8128  -24.3755   13.2720 C.ar    1  UNL1        0.0504
      6 C          17.6710  -23.0325   12.9490 C.ar    1  UNL1        0.0178
      7 C          18.7534  -22.1809   13.0476 C.ar    1  UNL1        0.0388
      8 C          19.9853  -22.6691   13.4587 C.ar    1  UNL1        0.1454
      9 C          20.1291  -24.0122   13.7756 C.ar    1  UNL1        0.0388
     10 C          19.0461  -24.8637   13.6830 C.ar    1  UNL1        0.0178
     11 O          21.0520  -21.8312   13.5505 O.3     1  UNL1       -0.4535
     12 C          20.9899  -20.8159   14.4513 C.ar    1  UNL1        0.1453
     13 C          20.7566  -21.0890   15.7917 C.ar    1  UNL1        0.0375
     14 C          20.6998  -20.0554   16.7062 C.ar    1  UNL1        0.0031
     15 C          20.8639  -18.7485   16.2854 C.ar    1  UNL1        0.0002
     16 C          21.0908  -18.4731   14.9495 C.ar    1  UNL1        0.0031
     17 C          21.1542  -19.5034   14.0317 C.ar    1  UNL1        0.0375
     18 C          14.6369  -26.2282   14.0876 C.3     1  UNL1       -0.0698
     19 C          12.0206  -28.1220   16.0125 C.ar    1  UNL1        0.1270
     20 N          11.6345  -26.9170   15.6253 N.ar    1  UNL1       -0.2225
     21 C          12.4534  -25.9453   15.3198 C.ar    1  UNL1        0.1260
     22 O          12.0730  -24.8464   14.9658 O.2     1  UNL1       -0.3051
     23 C          13.9272  -26.3138   15.4403 C.2     1  UNL1       -0.2184
     24 S          13.7556  -28.0546   16.0012 S.2     1  UNL1       -0.2504
     25 N          11.2305  -29.1823   16.3469 N.pl3   1  UNL1       -0.3151
     26 H          11.2825  -29.5692   17.2507 H       1  UNL1        0.1486
     27 C          10.3046  -29.7455   15.3611 C.3     1  UNL1        0.0886
     28 C          11.0417  -30.7696   14.4959 C.3     1  UNL1        0.0212
     29 C          12.7511  -30.0068   12.8410 C.3     1  UNL1        0.0001
     30 C          11.2539  -30.1944   13.0940 C.3     1  UNL1        0.0017
@<TRIPOS>UNITY_ATOM_ATTR
23 1
charge -1
@<TRIPOS>BOND
     1    29    30    1
     2    30    28    1
     3    28    27    1
     4    27    25    1
     5    25    19    1
     6    19    24   ar
     7    19    20   ar
     8    20    21   ar
     9    21    22    2
    10    21    23   ar
    11    23    24   ar
    12    23    18    1
    13    18     1    1
    14     1     2    2
    15     1     3   am
    16     3     5    1
    17     5    10   ar
    18     5     6   ar
    19     6     7   ar
    20     7     8   ar
    21     8     9   ar
    22     8    11    1
    23     9    10   ar
    24    11    12    1
    25    12    17   ar
    26    12    13   ar
    27    13    14   ar
    28    14    15   ar
    29    15    16   ar
    30    16    17   ar
    31    25    26    1
    32     3     4    1
#	Name:			ZINC06759227
#	Creating user name:	trannguyen
#	Creation time:		Wed Dec  7 14:36:19 2022


#	Modifying user name:	trannguyen
#	Modification time:	Wed Dec  7 14:36:19 2022

@<TRIPOS>MOLECULE
ZINC06759227
 28 30 0 0 0
SMALL
GASTEIGER

@<TRIPOS>ATOM
      1 C          18.6094  -23.1412   14.0379 C.ar    1  UNL1        0.1911
      2 N          18.3600  -23.9522   15.0426 N.ar    1  UNL1       -0.2208
      3 C          19.0286  -23.8444   16.2189 C.ar    1  UNL1        0.0906
      4 C          18.8766  -24.6348   17.3840 C.ar    1  UNL1        0.0276
      5 C          19.6606  -24.3420   18.4515 C.ar    1  UNL1        0.0096
      6 S          20.6488  -22.9713   17.9220 S.2     1  UNL1       -0.0871
      7 C          19.9915  -22.8177   16.2812 C.ar    1  UNL1        0.0782
      8 C          20.2258  -21.9832   15.2018 C.ar    1  UNL1        0.1414
      9 N          19.5154  -22.1715   14.0898 N.ar    1  UNL1       -0.2057
     10 C          19.6594  -25.0486   19.7708 C.3     1  UNL1        0.0599
     11 C          18.3903  -25.9159   19.8326 C.3     1  UNL1        0.0979
     12 O          18.2460  -26.6090   18.5897 O.3     1  UNL1       -0.3534
     13 C          17.8786  -25.7867   17.4797 C.3     1  UNL1        0.1701
     14 C          17.1699  -25.0234   20.0670 C.3     1  UNL1        0.0300
     15 C          18.5122  -26.9282   20.9734 C.3     1  UNL1        0.0300
     16 S          17.6896  -23.3472   12.5492 S.3     1  UNL1       -0.0757
     17 C          16.0460  -23.6663   13.2369 C.3     1  UNL1        0.0652
     18 C          15.2002  -25.6539   14.4925 C.3     1  UNL1        0.0009
     19 C          15.7371  -25.1621   13.1468 C.3     1  UNL1        0.0121
     20 N          21.1755  -20.9774   15.2753 N.pl3   1  UNL1       -0.2876
     21 C          21.5944  -20.5498   13.9338 C.3     1  UNL1        0.1239
     22 C          22.3199  -21.7014   13.2349 C.3     1  UNL1        0.1585
     23 O          21.6974  -21.9620   11.9753 O.3     1  UNL1       -0.3802
     24 H          20.7688  -22.2038   12.1175 H       1  UNL1        0.2105
     25 C          20.6773  -19.8392   16.0590 C.3     1  UNL1        0.1239
     26 C          21.4518  -18.5771   15.6743 C.3     1  UNL1        0.1585
     27 O          20.6109  -17.4334   15.8390 O.3     1  UNL1       -0.3802
     28 H          19.8311  -17.5206   15.2687 H       1  UNL1        0.2105
@<TRIPOS>BOND
     1    18    19    1
     2    19    17    1
     3    17    16    1
     4    16     1    1
     5     1     9   ar
     6     1     2   ar
     7     2     3   ar
     8     3     7   ar
     9     3     4   ar
    10     4    13    1
    11     4     5   ar
    12     5     6   ar
    13     5    10    1
    14     6     7   ar
    15     7     8   ar
    16     8     9   ar
    17     8    20    1
    18    20    21    1
    19    20    25    1
    20    21    22    1
    21    22    23    1
    22    25    26    1
    23    26    27    1
    24    10    11    1
    25    11    12    1
    26    11    14    1
    27    11    15    1
    28    12    13    1
    29    23    24    1
    30    27    28    1
#	Name:			ZINC06826497
#	Creating user name:	trannguyen
#	Creation time:		Wed Dec  7 14:36:20 2022


#	Modifying user name:	trannguyen
#	Modification time:	Wed Dec  7 14:36:20 2022

@<TRIPOS>MOLECULE
ZINC06826497
 29 30 0 0 0
SMALL
GASTEIGER

@<TRIPOS>ATOM
      1 C          24.3337  -23.6713   12.5058 C.2     1  UNL1        0.2504
      2 O          24.0867  -22.4918   12.3658 O.2     1  UNL1       -0.2728
      3 N          23.9113  -24.3221   13.6078 N.am    1  UNL1       -0.2054
      4 H          24.1117  -25.2793   13.7214 H       1  UNL1        0.1773
      5 N          23.1869  -23.6365   14.5917 N.2     1  UNL1       -0.1775
      6 C          21.8892  -23.6515   14.5710 C.2     1  UNL1        0.1206
      7 C          21.1273  -22.9302   15.6060 C.ar    1  UNL1        0.0547
      8 C          20.6020  -23.6209   16.7006 C.ar    1  UNL1        0.0046
      9 C          19.8948  -22.9392   17.6684 C.ar    1  UNL1        0.0003
     10 C          19.6987  -21.5731   17.5575 C.ar    1  UNL1        0.0031
     11 C          20.2086  -20.8792   16.4766 C.ar    1  UNL1        0.0370
     12 C          20.9214  -21.5484   15.4951 C.ar    1  UNL1        0.1405
     13 O          21.4228  -20.8674   14.4324 O.3     1  UNL1       -0.4706
     14 C          20.8131  -19.6136   14.1191 C.3     1  UNL1        0.2318
     15 C          21.8396  -18.5154   14.2252 C.2     1  UNL1        0.0207
     16 C          22.2383  -18.1030   15.4030 C.2     1  UNL1       -0.0011
     17 C          25.1129  -24.4088   11.4475 C.3     1  UNL1        0.1718
     18 N          23.9167  -26.4390   10.6948 N.am    1  UNL1       -0.2838
     19 C          24.8102  -25.8825   11.5365 C.2     1  UNL1        0.2355
     20 O          25.3707  -26.5677   12.3656 O.2     1  UNL1       -0.2742
     21 H          23.4023  -25.8707   10.0771 H       1  UNL1        0.1549
     22 C          23.1209  -32.0560   10.7117 C.3     1  UNL1        0.0310
     23 C          23.3323  -30.5639   10.7071 C.ar    1  UNL1       -0.0221
     24 C          22.5918  -29.7595   11.5542 C.ar    1  UNL1       -0.0030
     25 C          22.7831  -28.3919   11.5525 C.ar    1  UNL1        0.0140
     26 C          23.7204  -27.8243   10.6989 C.ar    1  UNL1        0.0462
     27 C          24.4581  -28.6341    9.8457 C.ar    1  UNL1       -0.0087
     28 C          24.2657  -30.0020    9.8559 C.ar    1  UNL1       -0.0073
     29 C          25.4713  -28.0219    8.9131 C.3     1  UNL1        0.0323
@<TRIPOS>BOND
     1    22    23    1
     2    23    28   ar
     3    23    24   ar
     4    24    25   ar
     5    25    26   ar
     6    26    27   ar
     7    26    18    1
     8    27    28   ar
     9    27    29    1
    10    18    19   am
    11    19    20    2
    12    19    17    1
    13    17     1    1
    14     1     2    2
    15     1     3   am
    16     3     5    1
    17     5     6    2
    18     6     7    1
    19     7    12   ar
    20     7     8   ar
    21     8     9   ar
    22     9    10   ar
    23    10    11   ar
    24    11    12   ar
    25    12    13    1
    26    13    14    1
    27    14    15    1
    28    15    16    2
    29    18    21    1
    30     3     4    1
#	Name:			ZINC06906532
#	Creating user name:	trannguyen
#	Creation time:		Wed Dec  7 14:36:19 2022


#	Modifying user name:	trannguyen
#	Modification time:	Wed Dec  7 14:36:19 2022

@<TRIPOS>MOLECULE
ZINC06906532
 49 53 0 0 0
SMALL
GASTEIGER

@<TRIPOS>ATOM
      1 N          20.2982  -25.6881   12.8677 N.am    1  UNL1       -0.2045
      2 C          19.0901  -25.8394   13.4458 C.2     1  UNL1        0.2594
      3 O          18.5712  -26.9351   13.4887 O.2     1  UNL1       -0.2716
      4 H          20.7194  -24.7989   12.8327 H       1  UNL1        0.1773
      5 C          22.2451  -26.7837   12.1786 C.2     1  UNL1        0.1177
      6 N          20.9546  -26.7962   12.3164 N.2     1  UNL1       -0.1776
      7 C          22.8761  -30.2089   10.7755 C.ar    1  UNL1        0.1741
      8 C          22.2244  -29.1204   11.3243 C.ar    1  UNL1        0.0417
      9 C          22.9359  -27.9496   11.5984 C.ar    1  UNL1        0.0256
     10 C          24.3041  -27.8868   11.3218 C.ar    1  UNL1        0.0290
     11 C          24.9485  -28.9786   10.7796 C.ar    1  UNL1        0.1797
     12 C          24.2416  -30.1409   10.5075 C.ar    1  UNL1        0.1949
     13 N          26.3980  -28.9105   10.4876 N.pl3   1  UNL1        0.0608
     14 O          26.7854  -28.4379    9.4340 O.2     1  UNL1       -0.1260
     15 O          27.2033  -29.3271   11.3010 O.2     1  UNL1       -0.1260
     16 C          21.0940  -31.6683   11.3671 C.3     1  UNL1        0.2526
     17 O          22.1855  -31.3481   10.5022 O.3     1  UNL1       -0.4683
     18 O          24.8818  -31.2143    9.9729 O.3     1  UNL1       -0.4659
     19 C          25.4012  -32.1817   10.8877 C.3     1  UNL1        0.2322
     20 C          24.7706  -33.5225   10.6124 C.ar    1  UNL1        0.0212
     21 C          24.1740  -34.2296   11.6394 C.ar    1  UNL1       -0.0007
     22 C          23.5960  -35.4597   11.3870 C.ar    1  UNL1       -0.0002
     23 C          23.6146  -35.9826   10.1075 C.ar    1  UNL1       -0.0000
     24 C          24.2107  -35.2752    9.0803 C.ar    1  UNL1       -0.0002
     25 C          24.7893  -34.0453    9.3329 C.ar    1  UNL1       -0.0007
     26 C          18.3840  -24.6475   14.0389 C.3     1  UNL1        0.1572
     27 N          16.9580  -24.7105   13.7090 N.am    1  UNL1       -0.2636
     28 C          16.0508  -24.9328   14.6805 C.2     1  UNL1        0.4023
     29 O          16.4155  -25.0809   15.8301 O.2     1  UNL1       -0.2264
     30 H          16.6624  -24.5905   12.7776 H       1  UNL1        0.1532
     31 O          14.7402  -24.9908   14.3773 O.3     1  UNL1       -0.4297
     32 C          13.8911  -25.7619   15.2677 C.3     1  UNL1        0.2367
     33 C          13.0213  -26.6870   14.4560 C.ar    1  UNL1        0.0213
     34 C          13.5986  -27.5869   13.5798 C.ar    1  UNL1       -0.0007
     35 C          12.8009  -28.4388   12.8389 C.ar    1  UNL1       -0.0002
     36 C          11.4256  -28.3837   12.9667 C.ar    1  UNL1       -0.0000
     37 C          10.8482  -27.4798   13.8386 C.ar    1  UNL1       -0.0002
     38 C          11.6460  -26.6315   14.5835 C.ar    1  UNL1       -0.0007
     39 C          18.9838  -23.3621   13.4655 C.3     1  UNL1        0.0570
     40 C          19.6438  -22.5789   14.5710 C.ar    1  UNL1       -0.0017
     41 C          19.7070  -22.9244   15.8666 C.ar    1  UNL1        0.0681
     42 N          20.3871  -21.9691   16.5717 N.ar    1  UNL1       -0.3523
     43 C          20.7810  -20.9557   15.7270 C.ar    1  UNL1        0.0563
     44 C          20.3328  -21.2931   14.4366 C.ar    1  UNL1        0.0131
     45 C          20.5927  -20.4391   13.3635 C.ar    1  UNL1        0.0012
     46 C          21.2822  -19.2778   13.5722 C.ar    1  UNL1        0.0001
     47 C          21.7260  -18.9401   14.8431 C.ar    1  UNL1        0.0015
     48 C          21.4807  -19.7687   15.9164 C.ar    1  UNL1        0.0170
     49 H          20.5679  -22.0016   17.5389 H       1  UNL1        0.1660
@<TRIPOS>BOND
     1    16    17    1
     2    17     7    1
     3     7    12   ar
     4     7     8   ar
     5     8     9   ar
     6     9    10   ar
     7     9     5    1
     8    10    11   ar
     9    11    12   ar
    10    11    13    1
    11    12    18    1
    12    18    19    1
    13    19    20    1
    14    20    25   ar
    15    20    21   ar
    16    21    22   ar
    17    22    23   ar
    18    23    24   ar
    19    24    25   ar
    20    13    14    2
    21    13    15    2
    22     5     6    2
    23     6     1    1
    24     1     2   am
    25     2     3    2
    26     2    26    1
    27    26    39    1
    28    26    27    1
    29    39    40    1
    30    40    44   ar
    31    40    41   ar
    32    41    42   ar
    33    42    43   ar
    34    43    48   ar
    35    43    44   ar
    36    44    45   ar
    37    45    46   ar
    38    46    47   ar
    39    47    48   ar
    40    27    28   am
    41    28    29    2
    42    28    31    1
    43    31    32    1
    44    32    33    1
    45    33    38   ar
    46    33    34   ar
    47    34    35   ar
    48    35    36   ar
    49    36    37   ar
    50    37    38   ar
    51     1     4    1
    52    42    49    1
    53    27    30    1
#	Name:			ZINC06924825
#	Creating user name:	trannguyen
#	Creation time:		Wed Dec  7 14:36:19 2022


#	Modifying user name:	trannguyen
#	Modification time:	Wed Dec  7 14:36:19 2022

@<TRIPOS>MOLECULE
ZINC06924825
 46 49 0 0 0
SMALL
GASTEIGER

@<TRIPOS>ATOM
      1 C          15.4361  -25.2799   14.7833 C.3     1  UNL1        0.1535
      2 C          17.1067  -25.7596   16.4909 C.2     1  UNL1        0.2474
      3 O          16.7923  -24.7251   17.0473 O.2     1  UNL1       -0.2701
      4 N          16.4877  -26.1270   15.3515 N.am    1  UNL1       -0.2945
      5 H          16.7423  -26.9646   14.9011 H       1  UNL1        0.1501
      6 C          19.3272  -26.0334   17.5955 C.ar    1  UNL1        0.0549
      7 C          20.3146  -26.8466   18.1362 C.ar    1  UNL1        0.0148
      8 C          20.1539  -28.2173   18.1444 C.ar    1  UNL1        0.0013
      9 C          19.0099  -28.7925   17.6150 C.ar    1  UNL1        0.0002
     10 C          18.0197  -28.0016   17.0738 C.ar    1  UNL1        0.0058
     11 C          18.1656  -26.6123   17.0631 C.ar    1  UNL1        0.0668
     12 C          20.2948  -24.0711   16.6774 C.2     1  UNL1        0.2495
     13 O          20.9512  -24.7602   15.9207 O.2     1  UNL1       -0.2698
     14 N          19.4867  -24.6507   17.5871 N.am    1  UNL1       -0.2803
     15 H          19.0091  -24.0961   18.2456 H       1  UNL1        0.1552
     16 C          20.5596  -19.8386   16.4608 C.ar    1  UNL1        0.1387
     17 C          19.9002  -20.4381   17.5276 C.ar    1  UNL1        0.0370
     18 C          19.8105  -21.8102   17.6006 C.ar    1  UNL1        0.0076
     19 C          20.3832  -22.6002   16.6000 C.ar    1  UNL1        0.0539
     20 C          21.0449  -21.9935   15.5290 C.ar    1  UNL1        0.0076
     21 C          21.1305  -20.6207   15.4636 C.ar    1  UNL1        0.0370
     22 C          21.8196  -17.9404   15.7872 C.3     1  UNL1        0.2525
     23 O          20.6457  -18.4859   16.3925 O.3     1  UNL1       -0.4714
     24 C          14.0870  -25.8663   15.1107 C.2     1  UNL1        0.2443
     25 O          13.0955  -25.1693   15.0650 O.2     1  UNL1       -0.2730
     26 N          13.9823  -27.1653   15.4545 N.am    1  UNL1       -0.2824
     27 H          14.7725  -27.7509   15.4122 H       1  UNL1        0.1549
     28 C          12.7563  -27.6790   15.8695 C.ar    1  UNL1        0.0566
     29 C          12.3321  -27.5001   17.1794 C.ar    1  UNL1        0.0149
     30 C          11.1143  -28.0056   17.5872 C.ar    1  UNL1        0.0013
     31 C          10.3113  -28.7032   16.6989 C.ar    1  UNL1        0.0003
     32 C          10.7180  -28.8957   15.3967 C.ar    1  UNL1        0.0077
     33 C          11.9460  -28.3852   14.9674 C.ar    1  UNL1        0.0891
     34 C          12.3875  -28.5879   13.5760 C.2     1  UNL1        0.3425
     35 O          11.8701  -27.9560   12.6762 O.2     1  UNL1       -0.2448
     36 O          13.3650  -29.4740   13.3015 O.3     1  UNL1       -0.4413
     37 C          12.9739  -30.6990   12.6273 C.3     1  UNL1        0.2560
     38 C          15.6053  -25.2066   13.2645 C.3     1  UNL1        0.0553
     39 C          16.8885  -24.4881   12.9359 C.ar    1  UNL1       -0.0198
     40 C          17.8819  -25.1387   12.2274 C.ar    1  UNL1       -0.0011
     41 C          19.0568  -24.4803   11.9200 C.ar    1  UNL1        0.0363
     42 C          19.2443  -23.1692   12.3327 C.ar    1  UNL1        0.1337
     43 C          18.2485  -22.5206   13.0483 C.ar    1  UNL1        0.0363
     44 C          17.0730  -23.1814   13.3483 C.ar    1  UNL1       -0.0011
     45 O          20.4014  -22.5211   12.0360 O.3     1  UNL1       -0.5055
     46 H          21.0736  -22.9600   11.5526 H       1  UNL1        0.2922
@<TRIPOS>BOND
     1    22    23    1
     2    23    16    1
     3    16    21   ar
     4    16    17   ar
     5    17    18   ar
     6    18    19   ar
     7    19    20   ar
     8    19    12    1
     9    20    21   ar
    10    12    13    2
    11    12    14   am
    12    14     6    1
    13     6    11   ar
    14     6     7   ar
    15     7     8   ar
    16     8     9   ar
    17     9    10   ar
    18    10    11   ar
    19    11     2    1
    20     2     3    2
    21     2     4   am
    22     4     1    1
    23     1    38    1
    24     1    24    1
    25    38    39    1
    26    39    44   ar
    27    39    40   ar
    28    40    41   ar
    29    41    42   ar
    30    42    43   ar
    31    42    45    1
    32    43    44   ar
    33    24    25    2
    34    24    26   am
    35    26    28    1
    36    28    33   ar
    37    28    29   ar
    38    29    30   ar
    39    30    31   ar
    40    31    32   ar
    41    32    33   ar
    42    33    34    1
    43    34    35    2
    44    34    36    1
    45    36    37    1
    46    14    15    1
    47     4     5    1
    48    45    46    1
    49    26    27    1
#	Name:			ZINC06973610
#	Creating user name:	trannguyen
#	Creation time:		Wed Dec  7 14:36:19 2022


#	Modifying user name:	trannguyen
#	Modification time:	Wed Dec  7 14:36:19 2022

@<TRIPOS>MOLECULE
ZINC06973610
 48 52 0 0 0
SMALL
GASTEIGER

@<TRIPOS>ATOM
      1 C          20.9380  -24.0458   14.4713 C.3     1  UNL1        0.1803
      2 C          20.0250  -24.6194   13.4185 C.ar    1  UNL1        0.0232
      3 C          20.2545  -25.7105   12.6710 C.ar    1  UNL1        0.0702
      4 N          19.1998  -25.9282   11.8270 N.ar    1  UNL1       -0.3522
      5 C          18.2437  -24.9547   12.0118 C.ar    1  UNL1        0.0564
      6 C          18.7202  -24.0902   13.0145 C.ar    1  UNL1        0.0151
      7 C          17.9505  -22.9964   13.4146 C.ar    1  UNL1        0.0012
      8 C          16.7363  -22.7709   12.8293 C.ar    1  UNL1        0.0001
      9 C          16.2621  -23.6205   11.8396 C.ar    1  UNL1        0.0015
     10 C          17.0050  -24.7063   11.4301 C.ar    1  UNL1        0.0170
     11 H          19.1343  -26.6704   11.1835 H       1  UNL1        0.1660
     12 N          22.6529  -25.2873   13.1921 N.am    1  UNL1       -0.2988
     13 C          22.3708  -24.3398   14.1081 C.2     1  UNL1        0.2455
     14 O          23.2699  -23.7237   14.6399 O.2     1  UNL1       -0.2729
     15 H          21.9230  -25.7874   12.7603 H       1  UNL1        0.1498
     16 C          24.0457  -25.5732   12.8389 C.3     1  UNL1        0.1164
     17 C          24.1513  -28.1638    9.4421 C.ar    1  UNL1        0.1387
     18 C          23.2870  -28.4319   10.4937 C.ar    1  UNL1        0.0366
     19 C          23.2547  -27.5928   11.5906 C.ar    1  UNL1        0.0005
     20 C          24.0829  -26.4867   11.6411 C.ar    1  UNL1       -0.0024
     21 C          24.9411  -26.2143   10.5917 C.ar    1  UNL1        0.0005
     22 C          24.9812  -27.0534    9.4951 C.ar    1  UNL1        0.0366
     23 C          23.6261  -30.2930    8.5239 C.3     1  UNL1        0.2525
     24 O          24.1851  -28.9880    8.3619 O.3     1  UNL1       -0.4714
     25 N          20.6289  -24.6520   15.7687 N.am    1  UNL1       -0.2412
     26 C          20.6403  -23.8971   16.8851 C.2     1  UNL1        0.2621
     27 O          20.9991  -22.7351   16.8305 O.2     1  UNL1       -0.2689
     28 C          20.2214  -24.4746   18.1635 C.ar    1  UNL1        0.1156
     29 C          18.9659  -24.4559   18.7741 C.ar    1  UNL1        0.0765
     30 C          18.9584  -25.1205   20.0004 C.ar    1  UNL1        0.1554
     31 N          20.0686  -25.6699   20.4412 N.ar    1  UNL1       -0.2031
     32 S          21.1749  -25.3955   19.3526 S.2     1  UNL1        0.0190
     33 N          17.8486  -23.8439   18.2217 N.pl3   1  UNL1       -0.3551
     34 H          17.9163  -23.3894   17.3509 H       1  UNL1        0.1424
     35 H          16.9887  -23.8644   18.7008 H       1  UNL1        0.1424
     36 C          17.7189  -25.2055   20.7942 C.2     1  UNL1        0.2624
     37 O          17.0541  -24.2067   20.9922 O.2     1  UNL1       -0.2687
     38 N          17.3227  -26.3901   21.3004 N.am    1  UNL1       -0.3240
     39 H          17.8609  -27.1987   21.1401 H       1  UNL1        0.1453
     40 H          16.4950  -26.4467   21.8304 H       1  UNL1        0.1453
     41 C          20.3215  -26.0159   15.8488 C.ar    1  UNL1        0.0889
     42 C          21.3397  -26.9553   15.9240 C.ar    1  UNL1        0.0180
     43 C          21.0337  -28.3006   16.0035 C.ar    1  UNL1        0.0015
     44 C          19.7142  -28.7140   16.0087 C.ar    1  UNL1        0.0032
     45 C          18.6941  -27.7838   15.9344 C.ar    1  UNL1        0.0382
     46 C          18.9922  -26.4329   15.8589 C.ar    1  UNL1        0.1523
     47 O          17.9899  -25.5166   15.7906 O.3     1  UNL1       -0.4702
     48 C          16.6981  -25.9952   15.4107 C.3     1  UNL1        0.2525
@<TRIPOS>BOND
     1    23    24    1
     2    24    17    1
     3    17    22   ar
     4    17    18   ar
     5    18    19   ar
     6    19    20   ar
     7    20    21   ar
     8    20    16    1
     9    21    22   ar
    10    16    12    1
    11    12    13   am
    12    13    14    2
    13    13     1    1
    14     1     2    1
    15     1    25    1
    16     2     6   ar
    17     2     3   ar
    18     3     4   ar
    19     4     5   ar
    20     5    10   ar
    21     5     6   ar
    22     6     7   ar
    23     7     8   ar
    24     8     9   ar
    25     9    10   ar
    26    25    41    1
    27    25    26   am
    28    41    46   ar
    29    41    42   ar
    30    42    43   ar
    31    43    44   ar
    32    44    45   ar
    33    45    46   ar
    34    46    47    1
    35    47    48    1
    36    26    27    2
    37    26    28    1
    38    28    32   ar
    39    28    29   ar
    40    29    30   ar
    41    29    33    1
    42    30    31   ar
    43    30    36    1
    44    31    32   ar
    45    36    37    2
    46    36    38   am
    47    12    15    1
    48     4    11    1
    49    38    39    1
    50    38    40    1
    51    33    34    1
    52    33    35    1
#	Name:			ZINC07078855
#	Creating user name:	trannguyen
#	Creation time:		Wed Dec  7 14:36:20 2022


#	Modifying user name:	trannguyen
#	Modification time:	Wed Dec  7 14:36:20 2022

@<TRIPOS>MOLECULE
ZINC07078855
 29 31 0 0 0
SMALL
GASTEIGER

@<TRIPOS>ATOM
      1 C          17.9281  -24.7372   18.6338 C.2     1  UNL1        0.2375
      2 O          16.9338  -24.0466   18.7085 O.2     1  UNL1       -0.2738
      3 N          18.0022  -25.7138   17.7079 N.am    1  UNL1       -0.2832
      4 H          18.8343  -26.2293   17.6016 H       1  UNL1        0.1549
      5 C          16.8950  -25.9955   16.8963 C.ar    1  UNL1        0.0504
      6 C          15.9652  -26.9461   17.2961 C.ar    1  UNL1        0.0159
      7 C          14.8717  -27.2204   16.4990 C.ar    1  UNL1        0.0158
      8 C          14.7073  -26.5526   15.2923 C.ar    1  UNL1        0.0479
      9 C          15.6403  -25.6057   14.8900 C.ar    1  UNL1        0.0158
     10 C          16.7309  -25.3283   15.6897 C.ar    1  UNL1        0.0159
     11 N          13.6018  -26.8335   14.4824 N.pl3   1  UNL1       -0.3075
     12 C          12.3481  -26.4899   15.1654 C.3     1  UNL1        0.0908
     13 C          11.1737  -26.6722   14.2013 C.3     1  UNL1        0.0215
     14 C          11.1339  -28.1260   13.7223 C.3     1  UNL1        0.0034
     15 C          12.4690  -28.4730   13.0578 C.3     1  UNL1        0.0215
     16 C          13.6058  -28.2385   14.0551 C.3     1  UNL1        0.0908
     17 C           9.9989  -28.3003   12.7112 C.3     1  UNL1        0.0001
     18 C          19.0805  -24.5033   19.5762 C.3     1  UNL1        0.1492
     19 S          20.6430  -24.8222   18.7116 S.3     1  UNL1       -0.0768
     20 C          20.9562  -21.0517   16.3962 C.ar    1  UNL1        0.1829
     21 N          21.4438  -22.1307   15.8159 N.ar    1  UNL1       -0.1252
     22 N          21.3873  -23.3423   16.4651 N.ar    1  UNL1       -0.1331
     23 C          20.8455  -23.4190   17.6654 C.ar    1  UNL1        0.1610
     24 S          20.3651  -21.7211   17.9433 S.2     1  UNL1       -0.0245
     25 N          20.9095  -19.7442   15.9272 N.pl3   1  UNL1       -0.3116
     26 H          20.1098  -19.1925   16.0862 H       1  UNL1        0.1487
     27 C          22.0503  -19.1871   15.1962 C.3     1  UNL1        0.0887
     28 C          21.4058  -19.6810   12.8333 C.3     1  UNL1        0.0018
     29 C          21.5640  -18.5766   13.8802 C.3     1  UNL1        0.0212
@<TRIPOS>BOND
     1    28    29    1
     2    29    27    1
     3    27    25    1
     4    25    20    1
     5    20    24   ar
     6    20    21   ar
     7    21    22   ar
     8    22    23   ar
     9    23    24   ar
    10    23    19    1
    11    19    18    1
    12    18     1    1
    13     1     2    2
    14     1     3   am
    15     3     5    1
    16     5    10   ar
    17     5     6   ar
    18     6     7   ar
    19     7     8   ar
    20     8     9   ar
    21     8    11    1
    22     9    10   ar
    23    11    16    1
    24    11    12    1
    25    12    13    1
    26    13    14    1
    27    14    15    1
    28    14    17    1
    29    15    16    1
    30    25    26    1
    31     3     4    1
#	Name:			ZINC07201436
#	Creating user name:	trannguyen
#	Creation time:		Wed Dec  7 14:36:20 2022


#	Modifying user name:	trannguyen
#	Modification time:	Wed Dec  7 14:36:20 2022

@<TRIPOS>MOLECULE
ZINC07201436
 26 27 0 0 0
SMALL
GASTEIGER

@<TRIPOS>ATOM
      1 C          15.4927  -25.0117   14.3070 C.ar    1  UNL1        0.1610
      2 N          14.6215  -24.0763   14.6342 N.ar    1  UNL1       -0.1331
      3 N          13.3634  -24.4325   15.0617 N.ar    1  UNL1       -0.1249
      4 C          13.0376  -25.7072   15.1531 C.ar    1  UNL1        0.1865
      5 S          14.5463  -26.4956   14.6118 S.2     1  UNL1       -0.0242
      6 N          11.8404  -26.2833   15.5623 N.pl3   1  UNL1       -0.2913
      7 H          11.2457  -25.7977   16.1786 H       1  UNL1        0.1541
      8 C          11.4805  -27.5536   15.0981 C.ar    1  UNL1        0.0500
      9 C          11.6122  -28.6596   15.9278 C.ar    1  UNL1        0.0178
     10 C          11.2515  -29.9118   15.4708 C.ar    1  UNL1        0.0382
     11 C          10.7686  -30.0669   14.1798 C.ar    1  UNL1        0.1388
     12 C          10.6421  -28.9638   13.3484 C.ar    1  UNL1        0.0382
     13 C          10.9969  -27.7099   13.8055 C.ar    1  UNL1        0.0178
     14 O          10.4184  -31.3012   13.7289 O.3     1  UNL1       -0.4714
     15 C          11.4282  -32.0572   13.0574 C.3     1  UNL1        0.2525
     16 S          17.1492  -24.8424   13.7307 S.3     1  UNL1       -0.0782
     17 C          17.0807  -23.4171   12.6107 C.3     1  UNL1        0.1299
     18 C          16.6678  -23.8855   11.2139 C.3     1  UNL1        0.0218
     19 N          18.8959  -22.0491   13.5865 N.am    1  UNL1       -0.3037
     20 C          18.4384  -22.7669   12.5415 C.2     1  UNL1        0.2325
     21 O          19.1194  -22.8894   11.5454 O.2     1  UNL1       -0.2742
     22 H          18.3414  -21.9461   14.3934 H       1  UNL1        0.1495
     23 C          20.2183  -21.4220   13.5216 C.3     1  UNL1        0.0894
     24 C          20.2037  -21.8594   15.9814 C.3     1  UNL1        0.0017
     25 C          20.5798  -20.8508   14.8942 C.3     1  UNL1        0.0196
     26 C          22.0838  -20.5757   14.9520 C.3     1  UNL1        0.0017
@<TRIPOS>BOND
     1    24    25    1
     2    25    26    1
     3    25    23    1
     4    23    19    1
     5    19    20   am
     6    20    21    2
     7    20    17    1
     8    17    18    1
     9    17    16    1
    10    16     1    1
    11     1     5   ar
    12     1     2   ar
    13     2     3   ar
    14     3     4   ar
    15     4     5   ar
    16     4     6    1
    17     6     8    1
    18     8    13   ar
    19     8     9   ar
    20     9    10   ar
    21    10    11   ar
    22    11    12   ar
    23    11    14    1
    24    12    13   ar
    25    14    15    1
    26    19    22    1
    27     6     7    1
#	Name:			ZINC07431491
#	Creating user name:	trannguyen
#	Creation time:		Wed Dec  7 14:36:20 2022


#	Modifying user name:	trannguyen
#	Modification time:	Wed Dec  7 14:36:20 2022

@<TRIPOS>MOLECULE
ZINC07431491
 28 29 0 0 0
SMALL
GASTEIGER

@<TRIPOS>ATOM
      1 C          15.3904  -24.5336   14.4533 C.2     1  UNL1        0.2739
      2 O          14.7882  -23.5721   14.0262 O.2     1  UNL1       -0.2706
      3 N          16.7176  -24.6442   14.2459 N.am    1  UNL1       -0.2366
      4 C          17.3751  -23.6857   13.5636 C.2     1  UNL1        0.3066
      5 O          16.7713  -22.7218   13.1355 O.2     1  UNL1       -0.2524
      6 N          18.7022  -23.7963   13.3562 N.am    1  UNL1       -0.2883
      7 H          17.2067  -25.4250   14.5929 H       1  UNL1        0.1592
      8 H          19.1912  -24.5772   13.7030 H       1  UNL1        0.1510
      9 C          14.6552  -25.6053   15.2163 C.3     1  UNL1        0.2931
     10 O          13.6223  -26.1783   14.3719 O.3     1  UNL1       -0.4353
     11 C          12.3435  -25.9774   14.7475 C.2     1  UNL1        0.3422
     12 O          12.0057  -24.9022   15.2023 O.2     1  UNL1       -0.2449
     13 C          11.0550  -27.8895   15.7000 C.ar    1  UNL1        0.0315
     14 C          10.1205  -28.9086   15.5531 C.ar    1  UNL1        0.0064
     15 C           9.4939  -29.1017   14.3399 C.ar    1  UNL1        0.0005
     16 C           9.7889  -28.2850   13.2587 C.ar    1  UNL1        0.0002
     17 C          10.7075  -27.2669   13.3853 C.ar    1  UNL1        0.0069
     18 C          11.3560  -27.0604   14.6066 C.ar    1  UNL1        0.0813
     19 C          13.2499  -28.7806   17.0701 C.3     1  UNL1        0.0742
     20 S          11.8567  -27.6391   17.2490 S.3     1  UNL1       -0.1125
     21 C          19.4170  -22.7545   12.6146 C.3     1  UNL1        0.0953
     22 C          20.8344  -22.6125   13.1727 C.3     1  UNL1        0.0430
     23 C          20.9986  -21.2452   13.7847 C.2     1  UNL1       -0.0468
     24 C          21.3306  -20.2670   13.0047 C.2     1  UNL1       -0.0346
     25 C          21.5397  -18.8553   13.4689 C.3     1  UNL1        0.0254
     26 C          20.9083  -18.6550   14.8484 C.3     1  UNL1        0.0050
     27 C          21.3754  -19.7925   15.7654 C.3     1  UNL1        0.0047
     28 C          20.7610  -21.1013   15.2594 C.3     1  UNL1        0.0218
@<TRIPOS>BOND
     1    19    20    1
     2    20    13    1
     3    13    18   ar
     4    13    14   ar
     5    14    15   ar
     6    15    16   ar
     7    16    17   ar
     8    17    18   ar
     9    18    11    1
    10    11    12    2
    11    11    10    1
    12    10     9    1
    13     9     1    1
    14     1     2    2
    15     1     3   am
    16     3     4   am
    17     4     5    2
    18     4     6   am
    19     6    21    1
    20    21    22    1
    21    22    23    1
    22    23    28    1
    23    23    24    2
    24    24    25    1
    25    25    26    1
    26    26    27    1
    27    27    28    1
    28     3     7    1
    29     6     8    1
#	Name:			ZINC07797262
#	Creating user name:	trannguyen
#	Creation time:		Wed Dec  7 14:36:19 2022


#	Modifying user name:	trannguyen
#	Modification time:	Wed Dec  7 14:36:19 2022

@<TRIPOS>MOLECULE
ZINC07797262
 30 32 0 0 0
SMALL
GASTEIGER

@<TRIPOS>ATOM
      1 C          21.2868  -25.4657   13.4884 C.ar    1  UNL1       -0.0025
      2 C          20.9765  -24.1846   13.9095 C.ar    1  UNL1       -0.0024
      3 C          19.6857  -23.7115   13.7958 C.ar    1  UNL1        0.0062
      4 C          18.6889  -24.5325   13.2649 C.ar    1  UNL1        0.0756
      5 C          19.0078  -25.8261   12.8472 C.ar    1  UNL1        0.0062
      6 C          20.3038  -26.2845   12.9614 C.ar    1  UNL1       -0.0024
      7 C          17.3033  -24.0346   13.1451 C.2     1  UNL1        0.3417
      8 O          17.0978  -22.8846   12.8121 O.2     1  UNL1       -0.2449
      9 O          16.2676  -24.8558   13.4052 O.3     1  UNL1       -0.4350
     10 C          15.8365  -24.9557   14.7880 C.3     1  UNL1        0.2957
     11 C          14.3601  -25.2541   14.8338 C.ar    1  UNL1        0.2812
     12 N          13.7934  -26.4105   14.5977 N.ar    1  UNL1       -0.1871
     13 C          12.4648  -26.2033   14.7554 C.ar    1  UNL1        0.2094
     14 N          12.3068  -24.9425   15.0754 N.ar    1  UNL1       -0.0554
     15 O          13.3846  -24.3888   15.1286 O.2     1  UNL1       -0.3331
     16 C          11.3947  -27.2092   14.5959 C.ar    1  UNL1        0.0685
     17 C          10.6493  -27.5080   13.4862 C.ar    1  UNL1        0.0102
     18 C           9.6989  -28.4996   13.5743 C.ar    1  UNL1        0.0076
     19 C           9.5212  -29.1429   14.7579 C.ar    1  UNL1        0.0355
     20 S          10.7310  -28.3466   15.8016 S.2     1  UNL1       -0.0832
     21 C          22.7005  -25.9733   13.6100 C.3     1  UNL1        0.1177
     22 N          24.4640  -26.2882   10.3992 N.am    1  UNL1       -0.2906
     23 C          23.7817  -26.6010   11.5186 C.2     1  UNL1        0.3010
     24 O          23.4680  -27.7552   11.7369 O.2     1  UNL1       -0.2528
     25 N          23.4472  -25.6342   12.3962 N.am    1  UNL1       -0.2849
     26 H          24.7181  -25.3537   10.2225 H       1  UNL1        0.1509
     27 H          23.7047  -24.7002   12.2215 H       1  UNL1        0.1513
     28 C          24.7633  -26.7807    8.0223 C.3     1  UNL1        0.0213
     29 C          24.8275  -27.3390    9.4454 C.3     1  UNL1        0.0732
     30 C          26.2484  -27.8250    9.7389 C.3     1  UNL1        0.0213
@<TRIPOS>BOND
     1    28    29    1
     2    29    30    1
     3    29    22    1
     4    22    23   am
     5    23    24    2
     6    23    25   am
     7    25    21    1
     8    21     1    1
     9     1     6   ar
    10     1     2   ar
    11     2     3   ar
    12     3     4   ar
    13     4     5   ar
    14     4     7    1
    15     5     6   ar
    16     7     8    2
    17     7     9    1
    18     9    10    1
    19    10    11    1
    20    11    15   ar
    21    11    12   ar
    22    12    13   ar
    23    13    14   ar
    24    13    16    1
    25    14    15   ar
    26    16    20   ar
    27    16    17   ar
    28    17    18   ar
    29    18    19   ar
    30    19    20   ar
    31    22    26    1
    32    25    27    1
#	Name:			ZINC08214783
#	Creating user name:	trannguyen
#	Creation time:		Wed Dec  7 14:36:20 2022


#	Modifying user name:	trannguyen
#	Modification time:	Wed Dec  7 14:36:20 2022

@<TRIPOS>MOLECULE
ZINC08214783
 47 50 0 0 0
SMALL
GASTEIGER

@<TRIPOS>ATOM
      1 C          19.2387  -24.4355   16.9562 C.3     1  UNL1        0.2071
      2 C          19.5409  -23.2400   16.0461 C.3     1  UNL1        0.0690
      3 C          21.0142  -23.2345   15.6803 C.3     1  UNL1        0.1017
      4 C          21.2521  -24.4172   14.7286 C.3     1  UNL1        0.0502
      5 C          22.6104  -24.3446   14.1170 C.2     1  UNL1       -0.0300
      6 C          22.9211  -23.5112   13.1812 C.2     1  UNL1       -0.0166
      7 C          21.9947  -22.5059   12.6012 C.3     1  UNL1        0.0589
      8 C          21.1667  -21.7609   13.6029 C.3     1  UNL1        0.1521
      9 C          21.5840  -22.0052   15.0463 C.3     1  UNL1        0.0788
     10 C          21.4105  -20.6922   15.7460 C.2     1  UNL1       -0.0227
     11 C          21.2307  -19.7268   14.8392 C.2     1  UNL1        0.0111
     12 C          21.2733  -20.2549   13.4697 C.2     1  UNL1        0.1933
     13 O          21.3715  -19.6181   12.4401 O.2     1  UNL1       -0.2892
     14 C          21.0101  -18.2757   15.1825 C.3     1  UNL1        0.0338
     15 O          19.8000  -22.1262   13.4244 O.3     1  UNL1       -0.3787
     16 C          21.0044  -25.7155   15.4742 C.3     1  UNL1        0.0499
     17 C          19.9465  -25.7146   16.5783 C.3     1  UNL1        0.1726
     18 C          19.6794  -26.4548   15.2788 C.3     1  UNL1        0.0408
     19 C          19.7281  -27.9919   15.3415 C.3     1  UNL1        0.0037
     20 C          18.6318  -25.9013   14.3180 C.3     1  UNL1        0.0037
     21 O          21.7710  -23.5030   16.8710 O.3     1  UNL1       -0.3859
     22 C          19.1202  -21.9738   16.7980 C.3     1  UNL1        0.0063
     23 H          19.5407  -21.9682   12.5032 H       1  UNL1        0.2108
     24 H          21.6487  -22.7770   17.5025 H       1  UNL1        0.2103
     25 C          24.3211  -23.5658   12.6341 C.3     1  UNL1        0.1591
     26 O          24.2822  -23.4335   11.2118 O.3     1  UNL1       -0.3776
     27 H          23.7589  -24.1576   10.8339 H       1  UNL1        0.2109
     28 O          20.2602  -26.5717   17.7168 O.3     1  UNL1       -0.4521
     29 C          20.8539  -25.9911   18.7714 C.2     1  UNL1        0.3174
     30 O          21.9731  -25.5480   18.6663 O.2     1  UNL1       -0.2501
     31 C          20.1245  -25.8917   20.0864 C.3     1  UNL1        0.1212
     32 O          17.8023  -24.6558   16.9872 O.3     1  UNL1       -0.4485
     33 C          17.2394  -24.8370   18.1922 C.2     1  UNL1        0.3170
     34 O          17.2439  -23.9403   19.0021 O.2     1  UNL1       -0.2501
     35 C          16.6019  -26.1588   18.5351 C.3     1  UNL1        0.1096
     36 C          16.5077  -27.0217   17.2752 C.3     1  UNL1        0.0116
     37 C          15.6229  -28.2380   17.5551 C.3     1  UNL1        0.0006
     38 C          14.1870  -27.7760   17.8117 C.3     1  UNL1        0.0000
     39 C          13.3413  -28.0204   16.5603 C.3     1  UNL1        0.0000
     40 C          12.3880  -26.8421   16.3509 C.3     1  UNL1        0.0000
     41 C          12.9949  -25.8690   15.3380 C.3     1  UNL1        0.0000
     42 C          13.8355  -26.6471   14.3237 C.3     1  UNL1        0.0000
     43 C          15.1351  -25.8878   14.0490 C.3     1  UNL1        0.0000
     44 C          15.0953  -24.5344   14.7614 C.3     1  UNL1        0.0000
     45 C          15.2706  -23.4127   13.7357 C.3     1  UNL1        0.0000
     46 C          16.3128  -23.7619   11.4920 C.3     1  UNL1        0.0000
     47 C          16.5914  -23.6069   12.9884 C.3     1  UNL1        0.0000
@<TRIPOS>BOND
     1    46    47    1
     2    47    45    1
     3    45    44    1
     4    44    43    1
     5    43    42    1
     6    42    41    1
     7    41    40    1
     8    40    39    1
     9    39    38    1
    10    38    37    1
    11    37    36    1
    12    36    35    1
    13    35    33    1
    14    33    34    2
    15    33    32    1
    16    32     1    1
    17     1    17    1
    18     1     2    1
    19     2     3    1
    20     2    22    1
    21     3     9    1
    22     3     4    1
    23     3    21    1
    24     4     5    1
    25     4    16    1
    26     5     6    2
    27     6     7    1
    28     6    25    1
    29     7     8    1
    30     8    12    1
    31     8     9    1
    32     8    15    1
    33     9    10    1
    34    10    11    2
    35    11    12    1
    36    11    14    1
    37    12    13    2
    38    25    26    1
    39    16    18    1
    40    16    17    1
    41    17    18    1
    42    17    28    1
    43    18    19    1
    44    18    20    1
    45    28    29    1
    46    29    30    2
    47    29    31    1
    48    15    23    1
    49    26    27    1
    50    21    24    1
#	Name:			ZINC08384594
#	Creating user name:	trannguyen
#	Creation time:		Wed Dec  7 14:36:19 2022


#	Modifying user name:	trannguyen
#	Modification time:	Wed Dec  7 14:36:19 2022

@<TRIPOS>MOLECULE
ZINC08384594
 45 48 0 0 0
SMALL
GASTEIGER

@<TRIPOS>ATOM
      1 C          18.3836  -23.5052   13.1596 C.2     1  UNL1        0.2632
      2 O          17.5462  -22.6407   13.3114 O.2     1  UNL1       -0.2715
      3 N          18.0488  -24.8018   13.3120 N.am    1  UNL1       -0.2044
      4 H          18.7284  -25.5034   13.1888 H       1  UNL1        0.1773
      5 N          16.7337  -25.1512   13.6456 N.2     1  UNL1       -0.1776
      6 C          16.5081  -26.1806   14.4030 C.2     1  UNL1        0.1176
      7 C          15.1242  -26.5483   14.7540 C.ar    1  UNL1        0.0209
      8 C          14.6992  -26.4888   16.0839 C.ar    1  UNL1        0.0047
      9 C          13.4036  -26.8297   16.4069 C.ar    1  UNL1        0.0370
     10 C          12.5234  -27.2408   15.4142 C.ar    1  UNL1        0.1393
     11 C          12.9429  -27.3062   14.0917 C.ar    1  UNL1        0.0370
     12 C          14.2354  -26.9630   13.7588 C.ar    1  UNL1        0.0047
     13 O          11.2486  -27.5806   15.7377 O.3     1  UNL1       -0.4656
     14 C          11.0472  -28.8749   16.3089 C.3     1  UNL1        0.2893
     15 C          10.4745  -29.8004   15.2666 C.2     1  UNL1        0.2672
     16 O           9.3891  -29.5665   14.7787 O.2     1  UNL1       -0.2711
     17 N          11.1683  -30.8880   14.8765 N.am    1  UNL1       -0.2992
     18 H          12.0493  -31.0779   15.2726 H       1  UNL1        0.1498
     19 C          10.6115  -31.7877   13.8633 C.3     1  UNL1        0.0942
     20 C          10.1769  -33.0962   14.5266 C.3     1  UNL1        0.0262
     21 C          11.6586  -32.0775   12.8189 C.ar    1  UNL1       -0.0045
     22 C          12.6006  -31.1176   12.4997 C.ar    1  UNL1       -0.0027
     23 C          13.5638  -31.3850   11.5448 C.ar    1  UNL1       -0.0003
     24 C          13.5791  -32.6091   10.9027 C.ar    1  UNL1       -0.0000
     25 C          12.6339  -33.5671   11.2182 C.ar    1  UNL1       -0.0003
     26 C          11.6735  -33.3012   12.1761 C.ar    1  UNL1       -0.0027
     27 C          19.7982  -23.1294   12.8008 C.3     1  UNL1        0.2020
     28 N          20.5844  -22.9611   14.0256 N.pl3   1  UNL1       -0.1815
     29 C          21.6889  -18.1724   14.0676 C.3     1  UNL1        0.0307
     30 C          21.1148  -19.3949   14.7361 C.ar    1  UNL1       -0.0246
     31 C          20.5875  -19.3013   16.0113 C.ar    1  UNL1       -0.0045
     32 C          20.0593  -20.4204   16.6282 C.ar    1  UNL1        0.0010
     33 C          20.0564  -21.6359   15.9722 C.ar    1  UNL1        0.0158
     34 C          20.5852  -21.7334   14.6916 C.ar    1  UNL1        0.0651
     35 C          21.1203  -20.6081   14.0769 C.ar    1  UNL1       -0.0109
     36 C          21.7007  -20.7105   12.6899 C.3     1  UNL1        0.0320
     37 S          21.4721  -24.2263   14.6201 S.O2    1  UNL1        0.0770
     38 O          20.6599  -25.3858   14.4963 O.2     1  UNL1       -0.1497
     39 O          22.0044  -23.7986   15.8663 O.2     1  UNL1       -0.1497
     40 C          22.8438  -24.4543   13.5380 C.ar    1  UNL1        0.1254
     41 C          23.5436  -23.3585   13.0688 C.ar    1  UNL1        0.0202
     42 C          24.6197  -23.5373   12.2198 C.ar    1  UNL1        0.0014
     43 C          24.9961  -24.8122   11.8401 C.ar    1  UNL1        0.0001
     44 C          24.2965  -25.9080   12.3097 C.ar    1  UNL1        0.0014
     45 C          23.2204  -25.7292   13.1586 C.ar    1  UNL1        0.0202
@<TRIPOS>BOND
     1    29    30    1
     2    30    35   ar
     3    30    31   ar
     4    31    32   ar
     5    32    33   ar
     6    33    34   ar
     7    34    35   ar
     8    34    28    1
     9    35    36    1
    10    28    27    1
    11    28    37    1
    12    27     1    1
    13     1     2    2
    14     1     3   am
    15     3     5    1
    16     5     6    2
    17     6     7    1
    18     7    12   ar
    19     7     8   ar
    20     8     9   ar
    21     9    10   ar
    22    10    11   ar
    23    10    13    1
    24    11    12   ar
    25    13    14    1
    26    14    15    1
    27    15    16    2
    28    15    17   am
    29    17    19    1
    30    19    20    1
    31    19    21    1
    32    21    26   ar
    33    21    22   ar
    34    22    23   ar
    35    23    24   ar
    36    24    25   ar
    37    25    26   ar
    38    37    38    2
    39    37    39    2
    40    37    40    1
    41    40    45   ar
    42    40    41   ar
    43    41    42   ar
    44    42    43   ar
    45    43    44   ar
    46    44    45   ar
    47     3     4    1
    48    17    18    1
#	Name:			ZINC08396775
#	Creating user name:	trannguyen
#	Creation time:		Wed Dec  7 14:36:19 2022


#	Modifying user name:	trannguyen
#	Modification time:	Wed Dec  7 14:36:19 2022

@<TRIPOS>MOLECULE
ZINC08396775
 44 47 0 0 0
SMALL
GASTEIGER

@<TRIPOS>ATOM
      1 C          21.4191  -24.0806   14.2882 C.ar    1  UNL1        0.1675
      2 N          22.4629  -23.4917   14.7999 N.ar    1  UNL1       -0.1307
      3 N          22.3439  -22.2159   14.7015 N.ar    1  UNL1       -0.1220
      4 C          21.2075  -21.9164   14.1163 C.ar    1  UNL1        0.1973
      5 N          20.5770  -23.0982   13.8386 N.ar    1  UNL1       -0.2711
      6 C          19.3301  -23.2686   13.2197 C.ar    1  UNL1        0.0670
      7 C          18.1887  -23.4412   13.9908 C.ar    1  UNL1        0.0176
      8 C          16.9611  -23.6026   13.3784 C.ar    1  UNL1        0.0015
      9 C          16.8702  -23.6048   11.9987 C.ar    1  UNL1        0.0001
     10 C          18.0061  -23.4387   11.2280 C.ar    1  UNL1        0.0015
     11 C          19.2355  -23.2707   11.8348 C.ar    1  UNL1        0.0176
     12 C          21.1796  -25.5665   14.2117 C.3     1  UNL1        0.1545
     13 N          21.8738  -26.1134   13.0432 N.pl3   1  UNL1       -0.3267
     14 H          22.4589  -25.5348   12.5028 H       1  UNL1        0.1472
     15 C          23.7355  -27.2747   11.2328 C.3     1  UNL1        0.0323
     16 C          22.5911  -28.0635   11.8153 C.ar    1  UNL1       -0.0083
     17 C          22.4257  -29.3928   11.4789 C.ar    1  UNL1        0.0027
     18 C          21.3720  -30.1157   12.0083 C.ar    1  UNL1        0.0298
     19 C          20.4847  -29.5120   12.8814 C.ar    1  UNL1        0.0070
     20 C          20.6484  -28.1851   13.2265 C.ar    1  UNL1        0.0144
     21 C          21.7054  -27.4561   12.6960 C.ar    1  UNL1        0.0409
     22 I          21.1197  -32.1293   11.4876 I       1  UNL1       -0.0425
     23 S          20.6051  -20.2988   13.7625 S.3     1  UNL1       -0.0669
     24 C          20.9892  -19.4715   15.3259 C.3     1  UNL1        0.1325
     25 C          22.4535  -19.0277   15.3216 C.3     1  UNL1        0.0219
     26 C          20.7567  -20.4253   16.4693 C.2     1  UNL1        0.2512
     27 O          21.5896  -20.5381   17.3439 O.2     1  UNL1       -0.2725
     28 N          19.6233  -21.1528   16.5200 N.am    1  UNL1       -0.2051
     29 H          18.9473  -21.0612   15.8101 H       1  UNL1        0.1773
     30 N          19.4071  -22.0395   17.5831 N.2     1  UNL1       -0.1776
     31 C          19.0731  -23.2717   17.3432 C.2     1  UNL1        0.1177
     32 C          18.8462  -24.2030   18.4597 C.ar    1  UNL1        0.0249
     33 C          17.6094  -24.2382   19.1022 C.ar    1  UNL1        0.0049
     34 C          17.3960  -25.1114   20.1500 C.ar    1  UNL1        0.0401
     35 C          18.4057  -25.9616   20.5753 C.ar    1  UNL1        0.1724
     36 C          19.6472  -25.9484   19.9460 C.ar    1  UNL1        0.1734
     37 C          19.8803  -25.0652   18.8860 C.ar    1  UNL1        0.0525
     38 C          21.1901  -25.0392   18.2170 C.2     1  UNL1        0.0759
     39 O          21.4441  -25.8487   17.3466 O.co2   1  UNL1       -0.5445
     40 O          22.1066  -24.1142   18.5654 O.co2   1  UNL1       -0.5445
     41 O          20.6305  -26.7862   20.3627 O.3     1  UNL1       -0.4683
     42 C          20.6073  -28.1197   19.8495 C.3     1  UNL1        0.2526
     43 O          18.1801  -26.8159   21.6087 O.3     1  UNL1       -0.4684
     44 C          16.9900  -27.6046   21.5503 C.3     1  UNL1        0.2526
@<TRIPOS>UNITY_ATOM_ATTR
40 1
charge -1
@<TRIPOS>BOND
     1    15    16    1
     2    16    21   ar
     3    16    17   ar
     4    17    18   ar
     5    18    19   ar
     6    18    22    1
     7    19    20   ar
     8    20    21   ar
     9    21    13    1
    10    13    12    1
    11    12     1    1
    12     1     5   ar
    13     1     2   ar
    14     2     3   ar
    15     3     4   ar
    16     4     5   ar
    17     4    23    1
    18     5     6    1
    19     6    11   ar
    20     6     7   ar
    21     7     8   ar
    22     8     9   ar
    23     9    10   ar
    24    10    11   ar
    25    23    24    1
    26    24    25    1
    27    24    26    1
    28    26    27    2
    29    26    28   am
    30    28    30    1
    31    30    31    2
    32    31    32    1
    33    32    37   ar
    34    32    33   ar
    35    33    34   ar
    36    34    35   ar
    37    35    36   ar
    38    35    43    1
    39    36    37   ar
    40    36    41    1
    41    37    38    1
    42    38    39   ar
    43    38    40   ar
    44    41    42    1
    45    43    44    1
    46    13    14    1
    47    28    29    1
#	Name:			ZINC08396840
#	Creating user name:	trannguyen
#	Creation time:		Wed Dec  7 14:36:19 2022


#	Modifying user name:	trannguyen
#	Modification time:	Wed Dec  7 14:36:19 2022

@<TRIPOS>MOLECULE
ZINC08396840
 47 51 0 0 0
SMALL
GASTEIGER

@<TRIPOS>ATOM
      1 C          24.1895  -29.3826   11.1442 C.2     1  UNL1        0.4051
      2 O          23.6333  -30.4582   11.0432 O.2     1  UNL1       -0.2262
      3 N          23.4609  -28.2506   11.2090 N.am    1  UNL1       -0.2411
      4 C          21.9913  -28.2854   11.1605 C.3     1  UNL1        0.1018
      5 C          21.4223  -27.7759   12.4858 C.3     1  UNL1        0.0484
      6 C          22.1221  -26.4772   12.8658 C.ar    1  UNL1       -0.0107
      7 C          23.3171  -26.1416   12.3327 C.ar    1  UNL1        0.0248
      8 S          23.7227  -24.5835   13.0670 S.2     1  UNL1       -0.0750
      9 C          22.3286  -24.3790   14.0756 C.ar    1  UNL1        0.0848
     10 C          21.5797  -25.5180   13.8142 C.ar    1  UNL1        0.0696
     11 C          24.1077  -26.9293   11.3319 C.3     1  UNL1        0.1296
     12 C          20.2890  -25.7457   14.4707 C.2     1  UNL1        0.2509
     13 O          20.2037  -26.5456   15.3844 O.2     1  UNL1       -0.2698
     14 N          19.1969  -25.0697   14.0627 N.am    1  UNL1       -0.2803
     15 H          19.2809  -24.3635   13.3820 H       1  UNL1        0.1552
     16 C          17.9422  -25.3718   14.6073 C.ar    1  UNL1        0.0507
     17 C          17.5922  -24.8828   15.8589 C.ar    1  UNL1        0.0178
     18 C          16.3529  -25.1763   16.3926 C.ar    1  UNL1        0.0382
     19 C          15.4621  -25.9690   15.6838 C.ar    1  UNL1        0.1388
     20 C          15.8133  -26.4626   14.4358 C.ar    1  UNL1        0.0382
     21 C          17.0501  -26.1652   13.8983 C.ar    1  UNL1        0.0178
     22 O          14.2440  -26.2618   16.2122 O.3     1  UNL1       -0.4714
     23 C          13.1324  -26.2703   15.3143 C.3     1  UNL1        0.2525
     24 N          22.0311  -23.3304   14.9307 N.am    1  UNL1       -0.2753
     25 C          21.1694  -22.3691   14.5439 C.2     1  UNL1        0.2511
     26 O          20.6530  -22.4220   13.4443 O.2     1  UNL1       -0.2698
     27 H          22.4493  -23.2875   15.8210 H       1  UNL1        0.1556
     28 C          20.8527  -21.2531   15.4542 C.ar    1  UNL1        0.0671
     29 C          21.1414  -19.9381   15.0809 C.ar    1  UNL1        0.0058
     30 C          20.8487  -18.9001   15.9385 C.ar    1  UNL1        0.0002
     31 C          20.2638  -19.1528   17.1691 C.ar    1  UNL1        0.0013
     32 C          19.9674  -20.4460   17.5496 C.ar    1  UNL1        0.0148
     33 C          20.2551  -21.5049   16.6985 C.ar    1  UNL1        0.0549
     34 N          19.9575  -22.8099   17.0803 N.am    1  UNL1       -0.2803
     35 C          20.5959  -23.3678   18.1280 C.2     1  UNL1        0.2495
     36 O          21.5033  -22.7715   18.6745 O.2     1  UNL1       -0.2698
     37 H          19.2807  -23.3255   16.5849 H       1  UNL1        0.1552
     38 C          20.1928  -24.7046   18.6126 C.ar    1  UNL1        0.0534
     39 C          18.9541  -24.8818   19.2321 C.ar    1  UNL1        0.0045
     40 C          18.5842  -26.1319   19.6824 C.ar    1  UNL1       -0.0002
     41 C          19.4378  -27.2092   19.5214 C.ar    1  UNL1       -0.0043
     42 C          20.6686  -27.0396   18.9131 C.ar    1  UNL1       -0.0217
     43 C          21.0488  -25.7955   18.4533 C.ar    1  UNL1        0.0003
     44 C          21.5941  -28.2174   18.7475 C.3     1  UNL1        0.0310
     45 O          25.5337  -29.3216   11.1914 O.3     1  UNL1       -0.4345
     46 C          27.3879  -28.0504   10.2554 C.3     1  UNL1        0.0513
     47 C          26.2226  -28.9953    9.9556 C.3     1  UNL1        0.2102
@<TRIPOS>BOND
     1    46    47    1
     2    47    45    1
     3    45     1    1
     4     1     2    2
     5     1     3   am
     6     3    11    1
     7     3     4    1
     8     4     5    1
     9     5     6    1
    10     6    10   ar
    11     6     7   ar
    12     7     8   ar
    13     7    11    1
    14     8     9   ar
    15     9    10   ar
    16     9    24    1
    17    10    12    1
    18    12    13    2
    19    12    14   am
    20    14    16    1
    21    16    21   ar
    22    16    17   ar
    23    17    18   ar
    24    18    19   ar
    25    19    20   ar
    26    19    22    1
    27    20    21   ar
    28    22    23    1
    29    24    25   am
    30    25    26    2
    31    25    28    1
    32    28    33   ar
    33    28    29   ar
    34    29    30   ar
    35    30    31   ar
    36    31    32   ar
    37    32    33   ar
    38    33    34    1
    39    34    35   am
    40    35    36    2
    41    35    38    1
    42    38    43   ar
    43    38    39   ar
    44    39    40   ar
    45    40    41   ar
    46    41    42   ar
    47    42    43   ar
    48    42    44    1
    49    14    15    1
    50    24    27    1
    51    34    37    1
#	Name:			ZINC08396923
#	Creating user name:	trannguyen
#	Creation time:		Wed Dec  7 14:36:19 2022


#	Modifying user name:	trannguyen
#	Modification time:	Wed Dec  7 14:36:19 2022

@<TRIPOS>MOLECULE
ZINC08396923
 36 38 0 0 0
SMALL
GASTEIGER

@<TRIPOS>ATOM
      1 S          18.9687  -24.7607   12.9465 S.3     1  UNL1       -0.0672
      2 C          19.5348  -23.9989   14.4309 C.ar    1  UNL1        0.1936
      3 N          19.5411  -22.7129   14.6951 N.ar    1  UNL1       -0.1224
      4 N          20.0271  -22.5104   15.8676 N.ar    1  UNL1       -0.1311
      5 C          20.3523  -23.6452   16.4190 C.ar    1  UNL1        0.1639
      6 N          20.0475  -24.6344   15.5252 N.ar    1  UNL1       -0.2883
      7 C          20.2376  -26.0761   15.7025 C.3     1  UNL1        0.1357
      8 C          19.1855  -26.6099   16.6401 C.2     1  UNL1       -0.0017
      9 C          17.9181  -26.5232   16.3201 C.2     1  UNL1       -0.0029
     10 C          20.9536  -23.8330   17.7881 C.3     1  UNL1        0.1542
     11 N          20.0331  -23.3115   18.8014 N.pl3   1  UNL1       -0.3265
     12 H          20.2067  -22.4380   19.2212 H       1  UNL1        0.1472
     13 C          18.9088  -24.0539   19.1723 C.ar    1  UNL1        0.0450
     14 C          17.6503  -23.6871   18.7132 C.ar    1  UNL1        0.0152
     15 C          16.5417  -24.4263   19.0762 C.ar    1  UNL1        0.0127
     16 C          16.6822  -25.5243   19.9066 C.ar    1  UNL1        0.0578
     17 C          17.9341  -25.8888   20.3701 C.ar    1  UNL1        0.0127
     18 C          19.0470  -25.1568   20.0053 C.ar    1  UNL1        0.0152
     19 CL         15.2855  -26.4467   20.3672 Cl      1  UNL1       -0.0822
     20 C          17.6504  -23.4860   10.9215 C.3     1  UNL1        0.0219
     21 C          17.6973  -23.5726   12.4484 C.3     1  UNL1        0.1325
     22 C          16.3566  -24.0243   12.9674 C.2     1  UNL1        0.2512
     23 O          15.5309  -23.2041   13.3094 O.2     1  UNL1       -0.2725
     24 N          16.0750  -25.3397   13.0518 N.am    1  UNL1       -0.2051
     25 H          16.7452  -26.0054   12.7743 H       1  UNL1        0.1773
     26 N          14.8286  -25.7596   13.5344 N.2     1  UNL1       -0.1776
     27 C          14.7624  -26.6865   14.4406 C.2     1  UNL1        0.1164
     28 C          13.4511  -27.1284   14.9483 C.ar    1  UNL1        0.0062
     29 C          13.1424  -26.9962   16.3042 C.ar    1  UNL1        0.0071
     30 C          11.9133  -27.4118   16.7734 C.ar    1  UNL1        0.0350
     31 C          10.9833  -27.9598   15.9051 C.ar    1  UNL1        0.0122
     32 C          11.2773  -28.0953   14.5608 C.ar    1  UNL1        0.0197
     33 C          12.5056  -27.6779   14.0725 C.ar    1  UNL1       -0.0833
     34 O          12.7933  -27.8058   12.7512 O.co2   1  UNL1       -0.8725
     35 BR          9.9991  -28.8443   13.3856 Br      1  UNL1       -0.0502
     36 BR         11.4965  -27.2330   18.6093 Br      1  UNL1       -0.0490
@<TRIPOS>UNITY_ATOM_ATTR
34 1
charge -1
@<TRIPOS>BOND
     1    20    21    1
     2    21    22    1
     3    21     1    1
     4    22    23    2
     5    22    24   am
     6    24    26    1
     7    26    27    2
     8    27    28    1
     9    28    33   ar
    10    28    29   ar
    11    29    30   ar
    12    30    31   ar
    13    30    36    1
    14    31    32   ar
    15    32    33   ar
    16    32    35    1
    17    33    34    1
    18     1     2    1
    19     2     6   ar
    20     2     3   ar
    21     3     4   ar
    22     4     5   ar
    23     5     6   ar
    24     5    10    1
    25     6     7    1
    26     7     8    1
    27     8     9    2
    28    10    11    1
    29    11    13    1
    30    13    18   ar
    31    13    14   ar
    32    14    15   ar
    33    15    16   ar
    34    16    17   ar
    35    16    19    1
    36    17    18   ar
    37    24    25    1
    38    11    12    1
#	Name:			ZINC08397414
#	Creating user name:	trannguyen
#	Creation time:		Wed Dec  7 14:36:19 2022


#	Modifying user name:	trannguyen
#	Modification time:	Wed Dec  7 14:36:19 2022

@<TRIPOS>MOLECULE
ZINC08397414
 43 46 0 0 0
SMALL
GASTEIGER

@<TRIPOS>ATOM
      1 C          20.5591  -23.0294   13.5076 C.ar    1  UNL1        0.1675
      2 N          20.4358  -22.2184   12.4951 N.ar    1  UNL1       -0.1307
      3 N          19.3179  -22.4253   11.8959 N.ar    1  UNL1       -0.1220
      4 C          18.6552  -23.3820   12.5036 C.ar    1  UNL1        0.1973
      5 N          19.4270  -23.7988   13.5530 N.ar    1  UNL1       -0.2702
      6 C          19.1227  -24.8053   14.4823 C.ar    1  UNL1        0.0776
      7 C          18.5006  -24.4808   15.6798 C.ar    1  UNL1        0.0193
      8 C          18.1973  -25.4737   16.5907 C.ar    1  UNL1        0.0129
      9 C          18.5231  -26.7904   16.3157 C.ar    1  UNL1        0.0586
     10 C          19.1479  -27.1166   15.1252 C.ar    1  UNL1        0.0243
     11 C          19.4486  -26.1273   14.2077 C.ar    1  UNL1        0.0746
     12 CL         20.2321  -26.5368   12.7136 Cl      1  UNL1       -0.0807
     13 CL         18.1467  -28.0347   17.4662 Cl      1  UNL1       -0.0822
     14 C          21.7277  -23.1027   14.4562 C.3     1  UNL1        0.1546
     15 N          22.1595  -21.7469   14.8048 N.pl3   1  UNL1       -0.3241
     16 H          23.0014  -21.3893   14.4404 H       1  UNL1        0.1473
     17 C          21.3659  -19.5738   15.5142 C.ar    1  UNL1        0.1517
     18 C          20.5928  -18.7994   16.3633 C.ar    1  UNL1        0.0382
     19 C          19.8240  -19.4026   17.3418 C.ar    1  UNL1        0.0032
     20 C          19.8324  -20.7779   17.4829 C.ar    1  UNL1        0.0015
     21 C          20.6056  -21.5574   16.6433 C.ar    1  UNL1        0.0174
     22 C          21.3753  -20.9597   15.6560 C.ar    1  UNL1        0.0794
     23 C          21.4596  -18.6529   13.3234 C.3     1  UNL1        0.2525
     24 O          22.1184  -18.9823   14.5479 O.3     1  UNL1       -0.4702
     25 S          17.0718  -24.0100   12.0528 S.3     1  UNL1       -0.0655
     26 C          16.0570  -23.2680   13.3551 C.3     1  UNL1        0.1515
     27 C          15.2074  -24.3335   13.9983 C.2     1  UNL1        0.2525
     28 O          14.4071  -24.0334   14.8593 O.2     1  UNL1       -0.2724
     29 N          15.3366  -25.6198   13.6172 N.am    1  UNL1       -0.2051
     30 H          15.9861  -25.8633   12.9185 H       1  UNL1        0.1773
     31 N          14.5467  -26.6103   14.2152 N.2     1  UNL1       -0.1776
     32 C          13.7632  -27.3440   13.4855 C.2     1  UNL1        0.1164
     33 C          12.9322  -28.3859   14.1146 C.ar    1  UNL1        0.0073
     34 C          13.1899  -29.7357   13.8644 C.ar    1  UNL1        0.0072
     35 C          12.4081  -30.7062   14.4567 C.ar    1  UNL1        0.0362
     36 C          11.3683  -30.3471   15.2987 C.ar    1  UNL1        0.0295
     37 C          11.1041  -29.0148   15.5540 C.ar    1  UNL1        0.1280
     38 C          11.8828  -28.0280   14.9717 C.ar    1  UNL1       -0.0666
     39 BR         12.7569  -32.5335   14.1172 Br      1  UNL1       -0.0489
     40 O          11.6273  -26.7187   15.2268 O.co2   1  UNL1       -0.8718
     41 N           9.9913  -28.6418   16.4560 N.pl3   1  UNL1        0.0565
     42 O           8.8383  -28.8213   16.1071 O.2     1  UNL1       -0.1261
     43 O          10.2288  -28.1553   17.5471 O.2     1  UNL1       -0.1261
@<TRIPOS>UNITY_ATOM_ATTR
40 1
charge -1
@<TRIPOS>BOND
     1    23    24    1
     2    24    17    1
     3    17    22   ar
     4    17    18   ar
     5    18    19   ar
     6    19    20   ar
     7    20    21   ar
     8    21    22   ar
     9    22    15    1
    10    15    14    1
    11    14     1    1
    12     1     5   ar
    13     1     2   ar
    14     2     3   ar
    15     3     4   ar
    16     4     5   ar
    17     4    25    1
    18     5     6    1
    19     6    11   ar
    20     6     7   ar
    21     7     8   ar
    22     8     9   ar
    23     9    10   ar
    24     9    13    1
    25    10    11   ar
    26    11    12    1
    27    25    26    1
    28    26    27    1
    29    27    28    2
    30    27    29   am
    31    29    31    1
    32    31    32    2
    33    32    33    1
    34    33    38   ar
    35    33    34   ar
    36    34    35   ar
    37    35    36   ar
    38    35    39    1
    39    36    37   ar
    40    37    38   ar
    41    37    41    1
    42    38    40    1
    43    41    42    2
    44    41    43    2
    45    15    16    1
    46    29    30    1
#	Name:			ZINC08398330
#	Creating user name:	trannguyen
#	Creation time:		Wed Dec  7 14:36:19 2022


#	Modifying user name:	trannguyen
#	Modification time:	Wed Dec  7 14:36:19 2022

@<TRIPOS>MOLECULE
ZINC08398330
 37 39 0 0 0
SMALL
GASTEIGER

@<TRIPOS>ATOM
      1 C          18.0561  -25.1674   13.5314 C.ar    1  UNL1        0.1790
      2 C          18.6747  -25.7156   14.6527 C.ar    1  UNL1        0.1729
      3 C          19.9860  -25.3919   14.9468 C.ar    1  UNL1        0.0417
      4 C          20.6888  -24.5142   14.1168 C.ar    1  UNL1        0.0244
      5 C          20.0611  -23.9639   12.9969 C.ar    1  UNL1        0.0115
      6 C          18.7529  -24.2956   12.7070 C.ar    1  UNL1        0.0716
      7 BR         17.9064  -23.5548   11.1871 Br      1  UNL1       -0.0457
      8 C          22.0876  -24.1655   14.4257 C.2     1  UNL1        0.1176
      9 N          22.3565  -23.0710   15.0705 N.2     1  UNL1       -0.1798
     10 N          21.3857  -22.4869   15.8945 N.pl3   1  UNL1       -0.2360
     11 H          20.8757  -23.0443   16.5257 H       1  UNL1        0.1744
     12 C          21.1418  -21.1152   15.8207 C.ar    1  UNL1        0.0647
     13 C          20.4856  -20.4672   16.8609 C.ar    1  UNL1        0.0160
     14 C          20.2455  -19.1099   16.7841 C.ar    1  UNL1        0.0010
     15 C          20.6569  -18.3948   15.6739 C.ar    1  UNL1       -0.0042
     16 C          21.3049  -19.0369   14.6347 C.ar    1  UNL1       -0.0206
     17 C          21.5537  -20.3934   14.7069 C.ar    1  UNL1        0.0118
     18 C          21.7457  -18.2543   13.4245 C.3     1  UNL1        0.0311
     19 O          17.9882  -26.5693   15.4585 O.3     1  UNL1       -0.4684
     20 C          18.6109  -27.8199   15.7591 C.3     1  UNL1        0.2526
     21 O          16.7659  -25.4870   13.2444 O.3     1  UNL1       -0.4620
     22 C          15.7505  -24.8370   14.0114 C.3     1  UNL1        0.2898
     23 N          13.5430  -25.4477   14.9455 N.am    1  UNL1       -0.2809
     24 C          14.7344  -25.8538   14.4639 C.2     1  UNL1        0.2707
     25 O          14.9888  -27.0376   14.3945 O.2     1  UNL1       -0.2707
     26 H          13.3677  -24.4884   15.0807 H       1  UNL1        0.1550
     27 C          10.6015  -28.2507   15.8626 C.ar    1  UNL1        0.0757
     28 C          11.4439  -27.7650   16.8670 C.ar    1  UNL1        0.0077
     29 C          12.4150  -26.8388   16.5603 C.ar    1  UNL1        0.0149
     30 C          12.5587  -26.3861   15.2524 C.ar    1  UNL1        0.0504
     31 C          11.7185  -26.8633   14.2512 C.ar    1  UNL1        0.0149
     32 C          10.7487  -27.7935   14.5495 C.ar    1  UNL1        0.0077
     33 C           9.5603  -29.2433   16.1871 C.2     1  UNL1        0.3412
     34 O           8.4623  -28.8742   16.5538 O.2     1  UNL1       -0.2449
     35 O           9.8266  -30.5596   16.0769 O.3     1  UNL1       -0.4454
     36 C           9.6199  -31.9537   18.0629 C.3     1  UNL1        0.0513
     37 C          10.5761  -31.1734   17.1586 C.3     1  UNL1        0.2089
@<TRIPOS>BOND
     1    36    37    1
     2    37    35    1
     3    35    33    1
     4    33    34    2
     5    33    27    1
     6    27    32   ar
     7    27    28   ar
     8    28    29   ar
     9    29    30   ar
    10    30    31   ar
    11    30    23    1
    12    31    32   ar
    13    23    24   am
    14    24    25    2
    15    24    22    1
    16    22    21    1
    17    21     1    1
    18     1     6   ar
    19     1     2   ar
    20     2     3   ar
    21     2    19    1
    22     3     4   ar
    23     4     5   ar
    24     4     8    1
    25     5     6   ar
    26     6     7    1
    27     8     9    2
    28     9    10    1
    29    10    12    1
    30    12    17   ar
    31    12    13   ar
    32    13    14   ar
    33    14    15   ar
    34    15    16   ar
    35    16    17   ar
    36    16    18    1
    37    19    20    1
    38    23    26    1
    39    10    11    1
#	Name:			ZINC08398512
#	Creating user name:	trannguyen
#	Creation time:		Wed Dec  7 14:36:20 2022


#	Modifying user name:	trannguyen
#	Modification time:	Wed Dec  7 14:36:20 2022

@<TRIPOS>MOLECULE
ZINC08398512
 47 50 0 0 0
SMALL
GASTEIGER

@<TRIPOS>ATOM
      1 C          14.9329  -30.5005   18.8536 C.3     1  UNL1        0.0088
      2 C          14.4932  -29.4706   19.8962 C.3     1  UNL1        0.0378
      3 C          14.1926  -30.1796   21.2182 C.3     1  UNL1        0.0088
      4 C          15.5958  -28.4648   20.1048 C.ar    1  UNL1       -0.0188
      5 C          16.7593  -28.5521   19.3627 C.ar    1  UNL1       -0.0008
      6 C          17.7713  -27.6312   19.5517 C.ar    1  UNL1        0.0372
      7 C          17.6198  -26.6181   20.4877 C.ar    1  UNL1        0.1453
      8 C          16.4539  -26.5364   21.2356 C.ar    1  UNL1        0.0372
      9 C          15.4421  -27.4560   21.0379 C.ar    1  UNL1       -0.0008
     10 O          18.6138  -25.7109   20.6757 O.3     1  UNL1       -0.4535
     11 C          18.9748  -24.9319   19.6215 C.ar    1  UNL1        0.1454
     12 C          20.2411  -25.0569   19.0685 C.ar    1  UNL1        0.0388
     13 C          20.6082  -24.2662   17.9977 C.ar    1  UNL1        0.0178
     14 C          19.7096  -23.3461   17.4742 C.ar    1  UNL1        0.0505
     15 C          18.4443  -23.2177   18.0315 C.ar    1  UNL1        0.0178
     16 C          18.0766  -24.0125   19.0989 C.ar    1  UNL1        0.0388
     17 N          20.0817  -22.5433   16.3880 N.am    1  UNL1       -0.2839
     18 C          20.8393  -21.4469   16.5886 C.2     1  UNL1        0.2265
     19 O          21.1411  -21.1163   17.7160 O.2     1  UNL1       -0.2748
     20 H          19.7897  -22.7802   15.4781 H       1  UNL1        0.1549
     21 C          21.3114  -20.6316   15.4124 C.3     1  UNL1        0.0913
     22 C          21.8307  -21.5674   14.3189 C.3     1  UNL1        0.0513
     23 C          21.1516  -21.2404   13.0139 C.2     1  UNL1        0.0508
     24 O          20.1181  -20.6145   13.0108 O.co2   1  UNL1       -0.5492
     25 O          21.6949  -21.6445   11.8549 O.co2   1  UNL1       -0.5492
     26 C          13.2534  -28.7637   19.4121 C.ar    1  UNL1       -0.0160
     27 C          12.2606  -28.4170   20.3102 C.ar    1  UNL1       -0.0038
     28 C          11.1242  -27.7642   19.8702 C.ar    1  UNL1        0.0028
     29 C          10.9729  -27.4656   18.5298 C.ar    1  UNL1        0.0375
     30 C          11.9651  -27.8169   17.6258 C.ar    1  UNL1        0.1450
     31 C          13.1072  -28.4675   18.0710 C.ar    1  UNL1        0.0335
     32 O          11.8185  -27.5247   16.3069 O.3     1  UNL1       -0.4535
     33 C          12.8457  -26.8981   15.6741 C.ar    1  UNL1        0.1454
     34 C          13.8683  -27.6440   15.1057 C.ar    1  UNL1        0.0388
     35 C          14.9089  -27.0084   14.4579 C.ar    1  UNL1        0.0178
     36 C          14.9378  -25.6221   14.3852 C.ar    1  UNL1        0.0505
     37 C          13.9170  -24.8759   14.9591 C.ar    1  UNL1        0.0178
     38 C          12.8740  -25.5129   15.6017 C.ar    1  UNL1        0.0388
     39 N          15.9961  -24.9765   13.7327 N.am    1  UNL1       -0.2839
     40 C          17.1758  -24.8108   14.3632 C.2     1  UNL1        0.2265
     41 O          17.3523  -25.3013   15.4583 O.2     1  UNL1       -0.2748
     42 H          15.8782  -24.6439   12.8137 H       1  UNL1        0.1549
     43 C          18.2755  -24.0162   13.7072 C.3     1  UNL1        0.0913
     44 C          17.6734  -23.0882   12.6501 C.3     1  UNL1        0.0513
     45 C          17.9469  -23.6465   11.2773 C.2     1  UNL1        0.0508
     46 O          18.3884  -22.9298   10.4106 O.co2   1  UNL1       -0.5492
     47 O          17.6999  -24.9401   11.0175 O.co2   1  UNL1       -0.5492
@<TRIPOS>UNITY_ATOM_ATTR
25 1
charge -1
47 1
charge -1
@<TRIPOS>BOND
     1     1     2    1
     2     2     3    1
     3     2     4    1
     4     2    26    1
     5     4     9   ar
     6     4     5   ar
     7     5     6   ar
     8     6     7   ar
     9     7     8   ar
    10     7    10    1
    11     8     9   ar
    12    10    11    1
    13    11    16   ar
    14    11    12   ar
    15    12    13   ar
    16    13    14   ar
    17    14    15   ar
    18    14    17    1
    19    15    16   ar
    20    17    18   am
    21    18    19    2
    22    18    21    1
    23    21    22    1
    24    22    23    1
    25    23    24   ar
    26    23    25   ar
    27    26    31   ar
    28    26    27   ar
    29    27    28   ar
    30    28    29   ar
    31    29    30   ar
    32    30    31   ar
    33    30    32    1
    34    32    33    1
    35    33    38   ar
    36    33    34   ar
    37    34    35   ar
    38    35    36   ar
    39    36    37   ar
    40    36    39    1
    41    37    38   ar
    42    39    40   am
    43    40    41    2
    44    40    43    1
    45    43    44    1
    46    44    45    1
    47    45    46   ar
    48    45    47   ar
    49    17    20    1
    50    39    42    1
#	Name:			ZINC08399384
#	Creating user name:	trannguyen
#	Creation time:		Wed Dec  7 14:36:19 2022


#	Modifying user name:	trannguyen
#	Modification time:	Wed Dec  7 14:36:19 2022

@<TRIPOS>MOLECULE
ZINC08399384
 50 53 0 0 0
SMALL
GASTEIGER

@<TRIPOS>ATOM
      1 N          20.7720  -25.4422   12.8978 N.2     1  UNL1       -0.2343
      2 C          21.4642  -25.6207   13.9992 C.2     1  UNL1        0.3618
      3 H          21.1697  -25.6642   12.0250 H       1  UNL1        0.3114
      4 C          16.9293  -23.9504   13.0946 C.ar    1  UNL1        0.0759
      5 C          18.0223  -23.0887   13.2392 C.ar    1  UNL1        0.0101
      6 C          19.2933  -23.5814   13.1745 C.ar    1  UNL1        0.0423
      7 C          19.5037  -24.9499   12.9629 C.ar    1  UNL1        0.1434
      8 C          18.4093  -25.8108   12.8125 C.ar    1  UNL1        0.0423
      9 C          17.1387  -25.3177   12.8836 C.ar    1  UNL1        0.0101
     10 C          15.5568  -23.4176   13.1650 C.2     1  UNL1        0.3412
     11 O          15.2447  -22.4521   12.4964 O.2     1  UNL1       -0.2449
     12 O          14.6479  -24.0013   13.9710 O.3     1  UNL1       -0.4454
     13 C          14.6467  -25.8137   15.5975 C.3     1  UNL1        0.0513
     14 C          15.0928  -24.3807   15.3001 C.3     1  UNL1        0.2089
     15 C          20.8272  -25.4076   15.3147 C.2     1  UNL1        0.3618
     16 N          19.7733  -26.1128   15.6556 N.2     1  UNL1       -0.2343
     17 H          19.3941  -26.7673   15.0255 H       1  UNL1        0.3114
     18 C          19.2048  -25.9388   16.8811 C.ar    1  UNL1        0.1434
     19 C          18.0734  -25.1251   17.0193 C.ar    1  UNL1        0.0423
     20 C          17.5010  -24.9554   18.2466 C.ar    1  UNL1        0.0101
     21 C          18.0513  -25.5848   19.3686 C.ar    1  UNL1        0.0759
     22 C          19.1849  -26.3937   19.2322 C.ar    1  UNL1        0.0101
     23 C          19.7548  -26.5688   18.0044 C.ar    1  UNL1        0.0423
     24 C          17.4363  -25.3961   20.6949 C.2     1  UNL1        0.3412
     25 O          17.1407  -24.2802   21.0744 O.2     1  UNL1       -0.2449
     26 O          17.2015  -26.4613   21.4864 O.3     1  UNL1       -0.4454
     27 C          16.2879  -27.4700   20.9803 C.3     1  UNL1        0.2089
     28 C          14.8587  -26.9246   21.0101 C.3     1  UNL1        0.0513
     29 N          21.3383  -24.4699   16.1830 N.pl3   1  UNL1       -0.1959
     30 H          21.7453  -24.7559   17.0326 H       1  UNL1        0.2986
     31 C          21.2792  -23.1101   15.8583 C.ar    1  UNL1        0.1358
     32 C          20.3507  -22.2866   16.4823 C.ar    1  UNL1        0.0414
     33 C          20.2890  -20.9462   16.1581 C.ar    1  UNL1        0.0180
     34 C          21.1547  -20.4212   15.2072 C.ar    1  UNL1        0.0482
     35 C          22.0832  -21.2445   14.5832 C.ar    1  UNL1        0.0180
     36 C          22.1454  -22.5848   14.9077 C.ar    1  UNL1        0.0414
     37 N          21.0919  -19.0629   14.8783 N.pl3   1  UNL1       -0.3041
     38 C          21.5142  -18.6103   13.5505 C.3     1  UNL1        0.1122
     39 C          20.6038  -18.0929   15.8618 C.3     1  UNL1        0.1122
     40 N          22.7836  -26.0066   13.9278 N.pl3   1  UNL1       -0.1959
     41 H          23.3234  -26.0686   14.7488 H       1  UNL1        0.2986
     42 C          23.3576  -26.3106   12.6886 C.ar    1  UNL1        0.1358
     43 C          22.9097  -27.4097   11.9667 C.ar    1  UNL1        0.0414
     44 C          23.4718  -27.7060   10.7411 C.ar    1  UNL1        0.0180
     45 C          24.4936  -26.9126   10.2355 C.ar    1  UNL1        0.0482
     46 C          24.9454  -25.8170   10.9601 C.ar    1  UNL1        0.0180
     47 C          24.3793  -25.5169   12.1827 C.ar    1  UNL1        0.0414
     48 N          25.0675  -27.2167    8.9965 N.pl3   1  UNL1       -0.3041
     49 C          26.1620  -26.3946    8.4747 C.3     1  UNL1        0.1122
     50 C          24.5738  -28.3572    8.2207 C.3     1  UNL1        0.1122
@<TRIPOS>UNITY_ATOM_ATTR
1 1
charge 1
16 1
charge 1
@<TRIPOS>BOND
     1    13    14    1
     2    14    12    1
     3    12    10    1
     4    10    11    2
     5    10     4    1
     6     4     9   ar
     7     4     5   ar
     8     5     6   ar
     9     6     7   ar
    10     7     8   ar
    11     7     1    1
    12     8     9   ar
    13     1     2    2
    14     2    15    1
    15     2    40    1
    16    15    16    2
    17    15    29    1
    18    16    18    1
    19    18    23   ar
    20    18    19   ar
    21    19    20   ar
    22    20    21   ar
    23    21    22   ar
    24    21    24    1
    25    22    23   ar
    26    24    25    2
    27    24    26    1
    28    26    27    1
    29    27    28    1
    30    29    31    1
    31    31    36   ar
    32    31    32   ar
    33    32    33   ar
    34    33    34   ar
    35    34    35   ar
    36    34    37    1
    37    35    36   ar
    38    37    38    1
    39    37    39    1
    40    40    42    1
    41    42    47   ar
    42    42    43   ar
    43    43    44   ar
    44    44    45   ar
    45    45    46   ar
    46    45    48    1
    47    46    47   ar
    48    48    49    1
    49    48    50    1
    50     1     3    1
    51    16    17    1
    52    29    30    1
    53    40    41    1
#	Name:			ZINC08416933
#	Creating user name:	trannguyen
#	Creation time:		Wed Dec  7 14:36:19 2022


#	Modifying user name:	trannguyen
#	Modification time:	Wed Dec  7 14:36:19 2022

@<TRIPOS>MOLECULE
ZINC08416933
 46 49 0 0 0
SMALL
GASTEIGER

@<TRIPOS>ATOM
      1 C          17.8200  -25.3869   17.1320 C.ar    1  UNL1        0.0962
      2 C          16.8612  -25.2220   16.1554 C.ar    1  UNL1        0.0542
      3 C          15.6074  -25.8941   16.2630 C.ar    1  UNL1        0.0391
      4 C          14.4466  -25.9274   15.4340 C.ar    1  UNL1        0.0542
      5 C          13.3545  -26.6830   15.8039 C.ar    1  UNL1        0.0962
      6 S          13.8898  -27.4125   17.3424 S.2     1  UNL1       -0.0745
      7 C          15.4946  -26.6899   17.4191 C.ar    1  UNL1        0.0614
      8 S          17.0232  -26.5031   18.2742 S.2     1  UNL1       -0.0745
      9 N          14.4154  -25.1950   14.2559 N.pl3   1  UNL1       -0.3564
     10 N          17.1159  -24.4007   15.0662 N.pl3   1  UNL1       -0.3564
     11 H          15.1950  -24.6551   13.9911 H       1  UNL1        0.1424
     12 H          13.6137  -25.2152   13.6848 H       1  UNL1        0.1424
     13 H          17.9809  -23.9366   14.9912 H       1  UNL1        0.1424
     14 H          16.4316  -24.2822   14.3684 H       1  UNL1        0.1424
     15 N          19.3032  -23.6823   17.9123 N.am    1  UNL1       -0.3001
     16 C          19.1094  -24.8157   17.2093 C.2     1  UNL1        0.2531
     17 O          20.0465  -25.3476   16.6407 O.2     1  UNL1       -0.2695
     18 H          18.5459  -23.2525   18.3719 H       1  UNL1        0.1498
     19 C          20.6406  -23.0897   17.9927 C.3     1  UNL1        0.0944
     20 C          20.5213  -21.5649   18.0331 C.3     1  UNL1        0.0477
     21 C          21.3800  -19.9596   14.1633 C.ar    1  UNL1        0.1724
     22 C          21.5306  -19.1711   15.2928 C.ar    1  UNL1        0.0397
     23 C          21.2469  -19.6911   16.5418 C.ar    1  UNL1       -0.0009
     24 C          20.8234  -21.0011   16.6685 C.ar    1  UNL1       -0.0173
     25 C          20.6710  -21.7933   15.5459 C.ar    1  UNL1        0.0358
     26 C          20.9483  -21.2764   14.2905 C.ar    1  UNL1        0.1721
     27 C          21.8350  -18.0332   12.8451 C.3     1  UNL1        0.2526
     28 O          21.6538  -19.4480   12.9335 O.3     1  UNL1       -0.4684
     29 O          20.7994  -22.0544   13.1850 O.3     1  UNL1       -0.4684
     30 C          19.5013  -22.6028   12.9479 C.3     1  UNL1        0.2526
     31 C          12.1228  -26.8432   15.1318 C.2     1  UNL1        0.2531
     32 O          11.5897  -25.8852   14.6004 O.2     1  UNL1       -0.2695
     33 N          11.5372  -28.0559   15.0781 N.am    1  UNL1       -0.3001
     34 H          11.9680  -28.8301   15.5075 H       1  UNL1        0.1498
     35 C          10.2595  -28.2222   14.3808 C.3     1  UNL1        0.0944
     36 C          10.5033  -28.8726   13.0176 C.3     1  UNL1        0.0477
     37 C          11.0309  -30.2703   13.2151 C.ar    1  UNL1       -0.0173
     38 C          10.3226  -31.1721   13.9875 C.ar    1  UNL1       -0.0009
     39 C          10.7996  -32.4572   14.1671 C.ar    1  UNL1        0.0397
     40 C          11.9956  -32.8404   13.5818 C.ar    1  UNL1        0.1724
     41 C          12.7114  -31.9310   12.8091 C.ar    1  UNL1        0.1721
     42 C          12.2249  -30.6462   12.6284 C.ar    1  UNL1        0.0358
     43 O          13.8855  -32.3025   12.2322 O.3     1  UNL1       -0.4684
     44 C          13.8634  -32.5671   10.8281 C.3     1  UNL1        0.2526
     45 O          12.4687  -34.1027   13.7617 O.3     1  UNL1       -0.4684
     46 C          11.7772  -35.1567   13.0888 C.3     1  UNL1        0.2526
@<TRIPOS>BOND
     1    27    28    1
     2    28    21    1
     3    21    26   ar
     4    21    22   ar
     5    22    23   ar
     6    23    24   ar
     7    24    25   ar
     8    24    20    1
     9    25    26   ar
    10    26    29    1
    11    29    30    1
    12    20    19    1
    13    19    15    1
    14    15    16   am
    15    16    17    2
    16    16     1    1
    17     1     8   ar
    18     1     2   ar
    19     2     3   ar
    20     2    10    1
    21     3     7   ar
    22     3     4   ar
    23     4     5   ar
    24     4     9    1
    25     5     6   ar
    26     5    31    1
    27     6     7   ar
    28     7     8   ar
    29    31    32    2
    30    31    33   am
    31    33    35    1
    32    35    36    1
    33    36    37    1
    34    37    42   ar
    35    37    38   ar
    36    38    39   ar
    37    39    40   ar
    38    40    41   ar
    39    40    45    1
    40    41    42   ar
    41    41    43    1
    42    43    44    1
    43    45    46    1
    44    15    18    1
    45    33    34    1
    46     9    11    1
    47     9    12    1
    48    10    13    1
    49    10    14    1
#	Name:			ZINC08417281
#	Creating user name:	trannguyen
#	Creation time:		Wed Dec  7 14:36:20 2022


#	Modifying user name:	trannguyen
#	Modification time:	Wed Dec  7 14:36:20 2022

@<TRIPOS>MOLECULE
ZINC08417281
 50 55 0 0 0
SMALL
GASTEIGER

@<TRIPOS>ATOM
      1 C          19.1252  -28.0289   18.5787 C.2     1  UNL1        0.1098
      2 C          19.9344  -27.1911   19.2782 C.2     1  UNL1        0.1956
      3 O          19.9546  -25.8711   19.0379 O.3     1  UNL1       -0.4377
      4 C          19.4929  -25.3874   17.8562 C.ar    1  UNL1        0.1774
      5 C          18.6557  -26.1267   17.0776 C.ar    1  UNL1        0.0237
      6 C          18.1867  -25.5988   15.8607 C.ar    1  UNL1       -0.0005
      7 C          17.3292  -26.3411   15.0303 C.ar    1  UNL1       -0.0002
      8 C          16.8943  -25.8016   13.8587 C.ar    1  UNL1       -0.0000
      9 C          17.2919  -24.5252   13.4649 C.ar    1  UNL1       -0.0000
     10 C          18.1277  -23.7809   14.2399 C.ar    1  UNL1       -0.0002
     11 C          18.5975  -24.3053   15.4566 C.ar    1  UNL1       -0.0005
     12 C          19.4645  -23.5639   16.2801 C.ar    1  UNL1        0.0237
     13 C          19.9010  -24.0976   17.4541 C.ar    1  UNL1        0.1774
     14 O          20.7391  -23.4034   18.2662 O.3     1  UNL1       -0.4377
     15 C          20.8384  -22.0706   18.1491 C.2     1  UNL1        0.1956
     16 C          20.4522  -21.4255   17.0173 C.2     1  UNL1        0.1098
     17 C          19.8967  -22.1881   15.8469 C.3     1  UNL1        0.0805
     18 N          21.3403  -21.3431   19.1949 N.pl3   1  UNL1       -0.3288
     19 C          18.2176  -27.5034   17.5019 C.3     1  UNL1        0.0805
     20 N          20.7483  -27.7059   20.2516 N.pl3   1  UNL1       -0.3288
     21 H          21.6235  -21.7987   20.0203 H       1  UNL1        0.1451
     22 H          21.4179  -20.3644   19.1213 H       1  UNL1        0.1451
     23 H          20.7426  -28.6727   20.4374 H       1  UNL1        0.1451
     24 H          21.3391  -27.1093   20.7656 H       1  UNL1        0.1451
     25 C          20.9555  -22.3099   14.7814 C.ar    1  UNL1       -0.0137
     26 C          20.8954  -21.5113   13.6543 C.ar    1  UNL1       -0.0005
     27 C          21.8677  -21.6171   12.6788 C.ar    1  UNL1        0.0366
     28 C          22.8988  -22.5335   12.8252 C.ar    1  UNL1        0.1387
     29 C          22.9537  -23.3377   13.9544 C.ar    1  UNL1        0.0366
     30 C          21.9821  -23.2241   14.9298 C.ar    1  UNL1       -0.0005
     31 O          23.8537  -22.6432   11.8646 O.3     1  UNL1       -0.4714
     32 C          24.7580  -23.7446   11.9715 C.3     1  UNL1        0.2525
     33 C          16.8062  -27.4386   18.0262 C.ar    1  UNL1       -0.0137
     34 C          15.8166  -28.2068   17.4411 C.ar    1  UNL1       -0.0005
     35 C          14.5232  -28.1535   17.9236 C.ar    1  UNL1        0.0366
     36 C          14.2154  -27.3197   18.9888 C.ar    1  UNL1        0.1387
     37 C          15.2089  -26.5456   19.5705 C.ar    1  UNL1        0.0366
     38 C          16.5020  -26.6069   19.0880 C.ar    1  UNL1       -0.0005
     39 O          12.9427  -27.2615   19.4620 O.3     1  UNL1       -0.4714
     40 C          12.7785  -26.9311   20.8426 C.3     1  UNL1        0.2525
     41 C          19.1364  -29.4016   18.8655 C.2     1  UNL1        0.3421
     42 O          20.1311  -30.0647   18.6307 O.2     1  UNL1       -0.2451
     43 O          18.0445  -29.9884   19.4019 O.3     1  UNL1       -0.4455
     44 C          16.2986  -29.8022   21.0625 C.3     1  UNL1        0.0513
     45 C          17.8041  -29.7632   20.7924 C.3     1  UNL1        0.2089
     46 C          20.5743  -20.0307   16.9396 C.2     1  UNL1        0.3421
     47 O          19.6134  -19.3210   17.1780 O.2     1  UNL1       -0.2451
     48 O          21.7574  -19.4742   16.6006 O.3     1  UNL1       -0.4455
     49 C          21.7160  -18.1807   15.9946 C.3     1  UNL1        0.2089
     50 C          22.0344  -18.3057   14.5033 C.3     1  UNL1        0.0513
@<TRIPOS>BOND
     1    44    45    1
     2    45    43    1
     3    43    41    1
     4    41    42    2
     5    41     1    1
     6     1    19    1
     7     1     2    2
     8     2     3    1
     9     2    20    1
    10     3     4    1
    11     4    13   ar
    12     4     5   ar
    13     5     6   ar
    14     5    19    1
    15     6    11   ar
    16     6     7   ar
    17     7     8   ar
    18     8     9   ar
    19     9    10   ar
    20    10    11   ar
    21    11    12   ar
    22    12    17    1
    23    12    13   ar
    24    13    14    1
    25    14    15    1
    26    15    16    2
    27    15    18    1
    28    16    17    1
    29    16    46    1
    30    17    25    1
    31    25    30   ar
    32    25    26   ar
    33    26    27   ar
    34    27    28   ar
    35    28    29   ar
    36    28    31    1
    37    29    30   ar
    38    31    32    1
    39    46    47    2
    40    46    48    1
    41    48    49    1
    42    49    50    1
    43    19    33    1
    44    33    38   ar
    45    33    34   ar
    46    34    35   ar
    47    35    36   ar
    48    36    37   ar
    49    36    39    1
    50    37    38   ar
    51    39    40    1
    52    18    21    1
    53    18    22    1
    54    20    23    1
    55    20    24    1
#	Name:			ZINC08427025
#	Creating user name:	trannguyen
#	Creation time:		Wed Dec  7 14:36:20 2022


#	Modifying user name:	trannguyen
#	Modification time:	Wed Dec  7 14:36:20 2022

@<TRIPOS>MOLECULE
ZINC08427025
 48 53 0 0 0
SMALL
GASTEIGER

@<TRIPOS>ATOM
      1 N          22.5614  -30.2019   20.7680 N.2     1  UNL1       -0.1756
      2 C          22.1521  -28.9731   20.6332 C.2     1  UNL1        0.1398
      3 C          21.7270  -31.8058   22.3167 C.2     1  UNL1        0.2797
      4 O          20.9436  -32.1956   21.4702 O.2     1  UNL1       -0.2671
      5 N          22.5781  -30.7995   22.0351 N.am    1  UNL1       -0.2012
      6 H          23.2115  -30.4844   22.7197 H       1  UNL1        0.1776
      7 C          22.3530  -33.1018   25.8679 C.3     1  UNL1        0.1141
      8 C          22.8207  -32.2336   24.6832 C.3     1  UNL1        0.0799
      9 C          21.7445  -32.4296   23.6394 C.2     1  UNL1        0.1328
     10 N          20.8443  -33.2391   24.0957 N.2     1  UNL1       -0.1846
     11 N          21.0954  -33.6957   25.3881 N.pl3   1  UNL1       -0.2526
     12 H          20.5241  -34.3151   25.8972 H       1  UNL1        0.1694
     13 C          21.6545  -30.6960   29.3278 C.ar    1  UNL1       -0.0000
     14 C          21.0459  -31.9316   29.2108 C.ar    1  UNL1       -0.0003
     15 C          21.2718  -32.7100   28.0909 C.ar    1  UNL1       -0.0024
     16 C          22.1065  -32.2530   27.0884 C.ar    1  UNL1       -0.0008
     17 C          22.7196  -31.0198   27.2081 C.ar    1  UNL1       -0.0024
     18 C          22.4897  -30.2392   28.3254 C.ar    1  UNL1       -0.0003
     19 C          23.3661  -34.1764   26.1675 C.ar    1  UNL1       -0.0008
     20 C          23.0788  -35.4973   25.8780 C.ar    1  UNL1       -0.0024
     21 C          24.0101  -36.4825   26.1485 C.ar    1  UNL1       -0.0003
     22 C          25.2247  -36.1480   26.7174 C.ar    1  UNL1       -0.0000
     23 C          25.5097  -34.8279   27.0121 C.ar    1  UNL1       -0.0003
     24 C          24.5806  -33.8420   26.7369 C.ar    1  UNL1       -0.0024
     25 C          22.1346  -28.3496   19.3112 C.2     1  UNL1        0.1398
     26 N          21.5431  -27.2023   19.1402 N.2     1  UNL1       -0.1756
     27 N          21.5263  -26.6047   17.8731 N.am    1  UNL1       -0.2012
     28 C          20.6107  -25.6581   17.5866 C.2     1  UNL1        0.2797
     29 O          19.7980  -25.3224   18.4289 O.2     1  UNL1       -0.2671
     30 H          22.1833  -26.8762   17.1921 H       1  UNL1        0.1776
     31 C          20.5931  -25.0342   16.2640 C.2     1  UNL1        0.1328
     32 N          21.3932  -25.3253   15.2899 N.2     1  UNL1       -0.1846
     33 N          21.1680  -24.5856   14.1309 N.pl3   1  UNL1       -0.2526
     34 C          20.0484  -23.6603   14.3658 C.3     1  UNL1        0.1141
     35 C          19.6330  -23.9536   15.8209 C.3     1  UNL1        0.0799
     36 H          21.6754  -24.6685   13.2914 H       1  UNL1        0.1694
     37 C          20.5020  -22.2309   14.2169 C.ar    1  UNL1       -0.0008
     38 C          20.4702  -21.3788   15.3049 C.ar    1  UNL1       -0.0024
     39 C          20.8908  -20.0689   15.1695 C.ar    1  UNL1       -0.0003
     40 C          21.3338  -19.6085   13.9438 C.ar    1  UNL1       -0.0000
     41 C          21.3604  -20.4590   12.8544 C.ar    1  UNL1       -0.0003
     42 C          20.9446  -21.7704   12.9910 C.ar    1  UNL1       -0.0024
     43 C          18.9108  -23.9546   13.4221 C.ar    1  UNL1       -0.0008
     44 C          19.0787  -24.8725   12.4022 C.ar    1  UNL1       -0.0024
     45 C          18.0336  -25.1459   11.5396 C.ar    1  UNL1       -0.0003
     46 C          16.8240  -24.4941   11.6908 C.ar    1  UNL1       -0.0000
     47 C          16.6581  -23.5721   12.7072 C.ar    1  UNL1       -0.0003
     48 C          17.7014  -23.3025   13.5730 C.ar    1  UNL1       -0.0024
@<TRIPOS>BOND
     1    13    18   ar
     2    13    14   ar
     3    14    15   ar
     4    15    16   ar
     5    16    17   ar
     6    16     7    1
     7    17    18   ar
     8     7    11    1
     9     7     8    1
    10     7    19    1
    11     8     9    1
    12     9    10    2
    13     9     3    1
    14    10    11    1
    15     3     4    2
    16     3     5   am
    17     5     1    1
    18     1     2    2
    19     2    25    1
    20    25    26    2
    21    26    27    1
    22    27    28   am
    23    28    29    2
    24    28    31    1
    25    31    35    1
    26    31    32    2
    27    32    33    1
    28    33    34    1
    29    34    35    1
    30    34    37    1
    31    34    43    1
    32    37    42   ar
    33    37    38   ar
    34    38    39   ar
    35    39    40   ar
    36    40    41   ar
    37    41    42   ar
    38    43    48   ar
    39    43    44   ar
    40    44    45   ar
    41    45    46   ar
    42    46    47   ar
    43    47    48   ar
    44    19    24   ar
    45    19    20   ar
    46    20    21   ar
    47    21    22   ar
    48    22    23   ar
    49    23    24   ar
    50    11    12    1
    51     5     6    1
    52    27    30    1
    53    33    36    1
#	Name:			ZINC08427376
#	Creating user name:	trannguyen
#	Creation time:		Wed Dec  7 14:36:19 2022


#	Modifying user name:	trannguyen
#	Modification time:	Wed Dec  7 14:36:19 2022

@<TRIPOS>MOLECULE
ZINC08427376
 43 44 0 0 0
SMALL
GASTEIGER

@<TRIPOS>ATOM
      1 N          18.7672  -23.6997   14.7702 N.am    1  UNL1       -0.2957
      2 H          18.8476  -22.7601   14.4874 H       1  UNL1        0.1539
      3 C          15.0245  -25.5244   14.8960 C.ar    1  UNL1        0.0894
      4 C          15.7617  -25.3813   16.0572 C.ar    1  UNL1        0.0182
      5 C          17.0029  -24.7769   16.0189 C.ar    1  UNL1        0.0159
      6 C          17.5104  -24.3123   14.8125 C.ar    1  UNL1        0.0496
      7 C          16.7648  -24.4521   13.6490 C.ar    1  UNL1        0.0159
      8 C          15.5270  -25.0629   13.6931 C.ar    1  UNL1        0.0182
      9 S          13.4419  -26.2972   14.9489 S.O2    1  UNL1       -0.0568
     10 O          12.4893  -25.2595   15.1360 O.2     1  UNL1       -0.1841
     11 O          13.3887  -27.1901   13.8448 O.2     1  UNL1       -0.1841
     12 N          13.3986  -27.2314   16.3156 N.pl3   1  UNL1       -0.5203
     13 C          10.6008  -27.8941   18.5890 C.ar    1  UNL1        0.2284
     14 C          11.8307  -27.4325   18.1371 C.ar    1  UNL1        0.0529
     15 C          12.1839  -27.6766   16.8125 C.ar    1  UNL1       -0.0169
     16 N          11.3409  -28.3486   16.0316 N.ar    1  UNL1       -0.2180
     17 C          10.1803  -28.7767   16.4994 C.ar    1  UNL1        0.3208
     18 N           9.8107  -28.5581   17.7507 N.ar    1  UNL1       -0.1591
     19 C           9.1826  -28.5176   20.3884 C.3     1  UNL1        0.2542
     20 O          10.2138  -27.6753   19.8695 O.3     1  UNL1       -0.4560
     21 O           9.3478  -29.4568   15.6753 O.3     1  UNL1       -0.4426
     22 C           9.2840  -29.0230   14.3153 C.3     1  UNL1        0.2559
     23 C          19.8681  -24.3957   15.1168 C.2     1  UNL1        0.1387
     24 S          19.9485  -26.0782   14.8111 S.2     1  UNL1       -0.0182
     25 N          20.9056  -23.7671   15.7040 N.am    1  UNL1       -0.2947
     26 H          21.5871  -24.2880   16.1871 H       1  UNL1        0.1537
     27 C          21.0135  -22.3819   15.6275 C.2     1  UNL1        0.1041
     28 C          20.6303  -21.6331   16.6439 C.2     1  UNL1        0.1572
     29 C          20.5973  -20.1328   16.5045 C.3     1  UNL1        0.4235
     30 F          19.6904  -19.5987   17.4261 F       1  UNL1       -0.1658
     31 F          21.8728  -19.6135   16.7508 F       1  UNL1       -0.1658
     32 F          20.1981  -19.7938   15.2073 F       1  UNL1       -0.1658
     33 C          20.2254  -22.2781   17.9445 C.3     1  UNL1        0.4235
     34 F          18.8603  -22.5817   17.9093 F       1  UNL1       -0.1658
     35 F          20.9601  -23.4541   18.1303 F       1  UNL1       -0.1658
     36 F          20.4802  -21.3972   19.0010 F       1  UNL1       -0.1658
     37 C          21.5681  -21.7368   14.3835 C.3     1  UNL1        0.3794
     38 F          20.5144  -21.2658   13.5930 F       1  UNL1       -0.1890
     39 F          22.3962  -20.6678   14.7420 F       1  UNL1       -0.1890
     40 C          22.3781  -22.7664   13.5930 C.3     1  UNL1        0.4599
     41 F          23.1637  -23.5177   14.4736 F       1  UNL1       -0.1647
     42 F          21.5062  -23.6167   12.9045 F       1  UNL1       -0.1647
     43 F          23.2049  -22.1061   12.6778 F       1  UNL1       -0.1647
@<TRIPOS>UNITY_ATOM_ATTR
12 1
charge -1
@<TRIPOS>BOND
     1    19    20    1
     2    20    13    1
     3    13    18   ar
     4    13    14   ar
     5    14    15   ar
     6    15    16   ar
     7    15    12    1
     8    16    17   ar
     9    17    18   ar
    10    17    21    1
    11    21    22    1
    12    12     9    1
    13     9    10    2
    14     9    11    2
    15     9     3    1
    16     3     8   ar
    17     3     4   ar
    18     4     5   ar
    19     5     6   ar
    20     6     7   ar
    21     6     1    1
    22     7     8   ar
    23     1    23    1
    24    23    24    2
    25    23    25    1
    26    25    27    1
    27    27    28    2
    28    27    37    1
    29    28    29    1
    30    28    33    1
    31    29    30    1
    32    29    31    1
    33    29    32    1
    34    33    34    1
    35    33    35    1
    36    33    36    1
    37    37    40    1
    38    37    38    1
    39    37    39    1
    40    40    41    1
    41    40    42    1
    42    40    43    1
    43     1     2    1
    44    25    26    1
#	Name:			ZINC08430066
#	Creating user name:	trannguyen
#	Creation time:		Wed Dec  7 14:36:19 2022


#	Modifying user name:	trannguyen
#	Modification time:	Wed Dec  7 14:36:19 2022

@<TRIPOS>MOLECULE
ZINC08430066
 40 43 0 0 0
SMALL
GASTEIGER

@<TRIPOS>ATOM
      1 C          21.5835  -20.3652   14.9058 C.2     1  UNL1        0.4051
      2 O          22.5930  -20.2872   15.5775 O.2     1  UNL1       -0.2262
      3 N          21.1519  -21.5672   14.4750 N.am    1  UNL1       -0.2411
      4 C          21.8812  -22.8019   14.8020 C.3     1  UNL1        0.1018
      5 C          21.0044  -23.6979   15.6788 C.3     1  UNL1        0.0484
      6 C          19.6147  -23.7973   15.0625 C.ar    1  UNL1       -0.0107
      7 C          19.1749  -22.8832   14.1720 C.ar    1  UNL1        0.0248
      8 S          17.5343  -23.4012   13.7576 S.2     1  UNL1       -0.0754
      9 C          17.4317  -24.8210   14.7456 C.ar    1  UNL1        0.0791
     10 C          18.6675  -24.8554   15.3788 C.ar    1  UNL1        0.0693
     11 C          19.9292  -21.6941   13.6576 C.3     1  UNL1        0.1296
     12 C          19.0065  -25.9203   16.3252 C.2     1  UNL1        0.2510
     13 O          18.2783  -26.1456   17.2746 O.2     1  UNL1       -0.2698
     14 N          20.1276  -26.6472   16.1482 N.am    1  UNL1       -0.2780
     15 H          20.6733  -26.5212   15.3386 H       1  UNL1        0.1553
     16 C          20.5167  -27.5834   17.1177 C.ar    1  UNL1        0.0852
     17 C          20.0803  -28.8970   17.0292 C.ar    1  UNL1        0.0209
     18 C          20.4640  -29.8192   17.9840 C.ar    1  UNL1        0.0384
     19 C          21.2865  -29.4340   19.0326 C.ar    1  UNL1        0.1418
     20 C          21.7255  -28.1218   19.1254 C.ar    1  UNL1        0.0750
     21 C          21.3466  -27.1961   18.1673 C.ar    1  UNL1        0.1551
     22 O          21.7802  -25.9103   18.2537 O.3     1  UNL1       -0.4701
     23 C          21.2915  -25.1330   19.3488 C.3     1  UNL1        0.2525
     24 O          21.6630  -30.3441   19.9700 O.3     1  UNL1       -0.4713
     25 C          22.7674  -29.9946   20.8067 C.3     1  UNL1        0.2525
     26 N          16.3762  -25.7039   14.8735 N.pl3   1  UNL1       -0.3240
     27 H          16.5007  -26.6552   14.6525 H       1  UNL1        0.1476
     28 C          15.0721  -25.2244   15.3380 C.3     1  UNL1        0.1146
     29 C          13.9849  -26.1068   14.7812 C.ar    1  UNL1       -0.0025
     30 C          12.6751  -25.9269   15.1867 C.ar    1  UNL1       -0.0014
     31 C          11.6754  -26.7302   14.6740 C.ar    1  UNL1        0.0142
     32 C          11.9885  -27.7271   13.7587 C.ar    1  UNL1        0.0479
     33 C          13.3061  -27.9087   13.3579 C.ar    1  UNL1        0.0142
     34 C          14.3000  -27.0983   13.8701 C.ar    1  UNL1       -0.0014
     35 N          10.9807  -28.5447   13.2423 N.pl3   1  UNL1       -0.3041
     36 C           9.6550  -27.9866   12.9643 C.3     1  UNL1        0.1122
     37 C          11.2493  -29.9605   12.9785 C.3     1  UNL1        0.1122
     38 O          20.8958  -19.2510   14.5920 O.3     1  UNL1       -0.4345
     39 C          19.9212  -19.0570   16.8152 C.3     1  UNL1        0.0513
     40 C          20.6212  -18.3199   15.6717 C.3     1  UNL1        0.2102
@<TRIPOS>BOND
     1    39    40    1
     2    40    38    1
     3    38     1    1
     4     1     2    2
     5     1     3   am
     6     3    11    1
     7     3     4    1
     8     4     5    1
     9     5     6    1
    10     6    10   ar
    11     6     7   ar
    12     7     8   ar
    13     7    11    1
    14     8     9   ar
    15     9    10   ar
    16     9    26    1
    17    10    12    1
    18    12    13    2
    19    12    14   am
    20    14    16    1
    21    16    21   ar
    22    16    17   ar
    23    17    18   ar
    24    18    19   ar
    25    19    20   ar
    26    19    24    1
    27    20    21   ar
    28    21    22    1
    29    22    23    1
    30    24    25    1
    31    26    28    1
    32    28    29    1
    33    29    34   ar
    34    29    30   ar
    35    30    31   ar
    36    31    32   ar
    37    32    33   ar
    38    32    35    1
    39    33    34   ar
    40    35    36    1
    41    35    37    1
    42    14    15    1
    43    26    27    1
#	Name:			ZINC08431760
#	Creating user name:	trannguyen
#	Creation time:		Wed Dec  7 14:36:19 2022


#	Modifying user name:	trannguyen
#	Modification time:	Wed Dec  7 14:36:19 2022

@<TRIPOS>MOLECULE
ZINC08431760
 43 47 0 0 0
SMALL
GASTEIGER

@<TRIPOS>ATOM
      1 C          19.8595  -24.8459   13.2801 C.ar    1  UNL1        0.2008
      2 N          20.5525  -25.9194   12.9128 N.ar    1  UNL1       -0.1880
      3 C          21.5325  -26.3749   13.6872 C.ar    1  UNL1        0.2248
      4 N          21.8123  -25.7633   14.8341 N.ar    1  UNL1       -0.1805
      5 C          21.1155  -24.6931   15.2040 C.ar    1  UNL1        0.2248
      6 N          20.1392  -24.2345   14.4270 N.ar    1  UNL1       -0.1880
      7 N          21.4064  -24.0576   16.3953 N.pl3   1  UNL1       -0.2823
      8 H          22.2133  -23.4987   16.4708 H       1  UNL1        0.1551
      9 C          20.5534  -24.2082   17.4958 C.ar    1  UNL1        0.0537
     10 C          19.5767  -23.2553   17.7526 C.ar    1  UNL1        0.0180
     11 C          18.7310  -23.4051   18.8354 C.ar    1  UNL1        0.0413
     12 C          18.8628  -24.5008   19.6730 C.ar    1  UNL1        0.1725
     13 C          19.8442  -25.4547   19.4213 C.ar    1  UNL1        0.1736
     14 C          20.6883  -25.3073   18.3331 C.ar    1  UNL1        0.0547
     15 O          19.9740  -26.5307   20.2426 O.3     1  UNL1       -0.4683
     16 C          19.3938  -27.7591   19.7994 C.3     1  UNL1        0.2526
     17 O          18.0331  -24.6438   20.7419 O.3     1  UNL1       -0.4684
     18 C          16.6924  -25.0578   20.4716 C.3     1  UNL1        0.2526
     19 N          22.2562  -27.4868   13.3029 N.pl3   1  UNL1       -0.2823
     20 H          22.2815  -28.2822   13.8825 H       1  UNL1        0.1551
     21 C          22.9540  -27.4828   12.0887 C.ar    1  UNL1        0.0537
     22 C          23.9316  -26.5253   11.8529 C.ar    1  UNL1        0.0180
     23 C          24.6245  -26.5229   10.6573 C.ar    1  UNL1        0.0413
     24 C          24.3380  -27.4695    9.6870 C.ar    1  UNL1        0.1725
     25 C          23.3552  -28.4271    9.9180 C.ar    1  UNL1        0.1736
     26 C          22.6645  -28.4326   11.1186 C.ar    1  UNL1        0.0547
     27 O          23.0736  -29.3568    8.9664 O.3     1  UNL1       -0.4683
     28 C          23.6080  -30.6676    9.1617 C.3     1  UNL1        0.2526
     29 O          25.0172  -27.4623    8.5078 O.3     1  UNL1       -0.4684
     30 C          26.0403  -26.4765    8.3545 C.3     1  UNL1        0.2526
     31 S          18.5654  -24.2380   12.2503 S.3     1  UNL1       -0.0229
     32 C          13.3547  -26.4027   15.8271 C.ar    1  UNL1        0.1391
     33 C          14.2698  -27.4511   15.8175 C.ar    1  UNL1        0.0385
     34 C          15.4700  -27.3464   15.1650 C.ar    1  UNL1        0.0228
     35 C          15.8184  -26.1619   14.4757 C.ar    1  UNL1        0.0887
     36 C          14.8669  -25.1176   14.5054 C.ar    1  UNL1        0.0520
     37 C          13.6634  -25.2287   15.1560 C.ar    1  UNL1        0.0449
     38 S          15.6662  -23.8497   13.5509 S.2     1  UNL1       -0.0598
     39 C          17.1632  -24.7542   13.1841 C.ar    1  UNL1        0.1432
     40 N          16.9527  -25.9010   13.7877 N.ar    1  UNL1       -0.2316
     41 O          12.1696  -26.5296   16.4818 O.3     1  UNL1       -0.4754
     42 C          11.1500  -28.3338   17.7250 C.3     1  UNL1        0.0512
     43 C          11.4803  -27.7734   16.3403 C.3     1  UNL1        0.2055
@<TRIPOS>BOND
     1    42    43    1
     2    43    41    1
     3    41    32    1
     4    32    37   ar
     5    32    33   ar
     6    33    34   ar
     7    34    35   ar
     8    35    40   ar
     9    35    36   ar
    10    36    37   ar
    11    36    38   ar
    12    38    39   ar
    13    39    40   ar
    14    39    31    1
    15    31     1    1
    16     1     6   ar
    17     1     2   ar
    18     2     3   ar
    19     3     4   ar
    20     3    19    1
    21     4     5   ar
    22     5     6   ar
    23     5     7    1
    24     7     9    1
    25     9    14   ar
    26     9    10   ar
    27    10    11   ar
    28    11    12   ar
    29    12    13   ar
    30    12    17    1
    31    13    14   ar
    32    13    15    1
    33    15    16    1
    34    17    18    1
    35    19    21    1
    36    21    26   ar
    37    21    22   ar
    38    22    23   ar
    39    23    24   ar
    40    24    25   ar
    41    24    29    1
    42    25    26   ar
    43    25    27    1
    44    27    28    1
    45    29    30    1
    46     7     8    1
    47    19    20    1
#	Name:			ZINC08435200
#	Creating user name:	trannguyen
#	Creation time:		Wed Dec  7 14:36:19 2022


#	Modifying user name:	trannguyen
#	Modification time:	Wed Dec  7 14:36:19 2022

@<TRIPOS>MOLECULE
ZINC08435200
 53 59 0 0 0
SMALL
GASTEIGER

@<TRIPOS>ATOM
      1 C          18.4290  -26.7583   17.0495 C.ar    1  UNL1        0.1783
      2 C          18.7669  -26.2750   15.7937 C.ar    1  UNL1        0.0217
      3 C          19.7156  -26.9299   15.0316 C.ar    1  UNL1        0.0023
      4 C          20.3240  -28.0747   15.5124 C.ar    1  UNL1        0.0399
      5 C          19.9921  -28.5643   16.7663 C.ar    1  UNL1        0.1754
      6 C          19.0422  -27.9058   17.5385 C.ar    1  UNL1        0.2063
      7 O          18.7133  -28.3835   18.7695 O.3     1  UNL1       -0.4654
      8 C          19.4728  -27.8974   19.8781 C.3     1  UNL1        0.2528
      9 O          20.5947  -29.6877   17.2400 O.3     1  UNL1       -0.4683
     10 C          22.0227  -29.7237   17.2005 C.3     1  UNL1        0.2526
     11 O          17.4996  -26.1101   17.8010 O.3     1  UNL1       -0.4476
     12 C          12.1788  -28.1391   13.1158 C.3     1  UNL1        0.1673
     13 C          10.1264  -28.3209   14.3799 C.3     1  UNL1        0.1104
     14 C           9.4688  -28.9741   15.5840 C.3     1  UNL1        0.0872
     15 C          10.3088  -28.8621   16.8247 C.ar    1  UNL1       -0.0118
     16 C           9.7601  -29.2963   18.0261 C.ar    1  UNL1        0.0359
     17 C          10.4708  -29.1970   19.2082 C.ar    1  UNL1        0.1718
     18 C          11.7543  -28.6627   19.2001 C.ar    1  UNL1        0.1675
     19 C          12.3100  -28.2353   17.9946 C.ar    1  UNL1        0.0376
     20 C          11.5826  -28.3369   16.8067 C.ar    1  UNL1        0.0263
     21 C          12.2039  -27.8559   15.5213 C.3     1  UNL1        0.0827
     22 C          13.7037  -28.1421   15.5023 C.3     1  UNL1        0.0862
     23 C          14.3617  -27.6179   16.7494 C.ar    1  UNL1       -0.0128
     24 C          13.6824  -27.6764   17.9660 C.ar    1  UNL1        0.0023
     25 C          14.2985  -27.2327   19.1314 C.ar    1  UNL1        0.0398
     26 C          15.5781  -26.7089   19.0766 C.ar    1  UNL1        0.1729
     27 C          16.2460  -26.6329   17.8563 C.ar    1  UNL1        0.1788
     28 C          15.6330  -27.0839   16.6970 C.ar    1  UNL1        0.0366
     29 O          12.4606  -28.5568   20.3569 O.3     1  UNL1       -0.5029
     30 N          11.5764  -28.5766   14.3936 N.4     1  UNL1        0.2799
     31 H          12.0830  -28.8453   21.1644 H       1  UNL1        0.2923
     32 H          11.7364  -29.5772   14.5092 H       1  UNL1        0.2071
     33 O          16.1826  -26.2685   20.2123 O.3     1  UNL1       -0.4684
     34 C          16.0978  -27.1131   21.3619 C.3     1  UNL1        0.2526
     35 O           9.9162  -29.6217   20.3751 O.3     1  UNL1       -0.4684
     36 C           9.0287  -28.7190   21.0380 C.3     1  UNL1        0.2526
     37 C          18.1027  -25.0310   15.2625 C.3     1  UNL1        0.0893
     38 C          19.0177  -24.3642   14.2332 C.3     1  UNL1        0.0828
     39 C          19.7185  -23.1951   14.8746 C.ar    1  UNL1        0.0264
     40 C          20.2135  -23.3495   16.1619 C.ar    1  UNL1        0.0409
     41 C          20.8674  -22.3053   16.7907 C.ar    1  UNL1        0.1722
     42 C          21.0296  -21.0930   16.1262 C.ar    1  UNL1        0.1721
     43 C          20.5336  -20.9433   14.8437 C.ar    1  UNL1        0.0359
     44 C          19.8763  -21.9929   14.2186 C.ar    1  UNL1       -0.0118
     45 C          19.3453  -21.7773   12.8242 C.3     1  UNL1        0.0872
     46 C          19.0422  -23.1239   12.1669 C.3     1  UNL1        0.1104
     47 C          17.6029  -25.0594   12.3984 C.3     1  UNL1        0.1673
     48 N          18.2008  -23.9007   13.0993 N.4     1  UNL1        0.2799
     49 H          17.4498  -23.3051   13.4482 H       1  UNL1        0.2071
     50 O          21.6729  -20.0609   16.7349 O.3     1  UNL1       -0.4684
     51 C          21.4399  -18.7519   16.2111 C.3     1  UNL1        0.2526
     52 O          21.3502  -22.4627   18.0522 O.3     1  UNL1       -0.4684
     53 C          21.0061  -23.6714   18.7325 C.3     1  UNL1        0.2526
@<TRIPOS>UNITY_ATOM_ATTR
30 1
charge 1
48 1
charge 1
@<TRIPOS>BOND
     1    12    30    1
     2    13    14    1
     3    13    30    1
     4    14    15    1
     5    15    20   ar
     6    15    16   ar
     7    16    17   ar
     8    17    18   ar
     9    17    35    1
    10    18    19   ar
    11    18    29    1
    12    19    24    1
    13    19    20   ar
    14    20    21    1
    15    21    22    1
    16    21    30    1
    17    22    23    1
    18    23    28   ar
    19    23    24   ar
    20    24    25   ar
    21    25    26   ar
    22    26    27   ar
    23    26    33    1
    24    27    28   ar
    25    27    11    1
    26    11     1    1
    27     1     6   ar
    28     1     2   ar
    29     2     3   ar
    30     2    37    1
    31     3     4   ar
    32     4     5   ar
    33     5     6   ar
    34     5     9    1
    35     6     7    1
    36     7     8    1
    37     9    10    1
    38    37    38    1
    39    38    39    1
    40    38    48    1
    41    39    44   ar
    42    39    40   ar
    43    40    41   ar
    44    41    42   ar
    45    41    52    1
    46    42    43   ar
    47    42    50    1
    48    43    44   ar
    49    44    45    1
    50    45    46    1
    51    46    48    1
    52    47    48    1
    53    50    51    1
    54    52    53    1
    55    33    34    1
    56    35    36    1
    57    29    31    1
    58    30    32    1
    59    48    49    1
#	Name:			ZINC08438023
#	Creating user name:	trannguyen
#	Creation time:		Wed Dec  7 14:36:20 2022


#	Modifying user name:	trannguyen
#	Modification time:	Wed Dec  7 14:36:20 2022

@<TRIPOS>MOLECULE
ZINC08438023
 42 47 0 0 0
SMALL
GASTEIGER

@<TRIPOS>ATOM
      1 C          21.1905  -27.5491   17.6204 C.ar    1  UNL1        0.1368
      2 N          20.8164  -26.9444   16.5158 N.ar    1  UNL1       -0.2320
      3 C          20.7882  -27.5725   15.3184 C.ar    1  UNL1        0.0885
      4 C          20.4093  -27.0404   14.0643 C.ar    1  UNL1        0.0209
      5 C          20.4365  -27.8160   12.9353 C.ar    1  UNL1        0.0163
      6 C          20.8363  -29.1496   12.9801 C.ar    1  UNL1        0.0511
      7 C          21.2096  -29.7039   14.1976 C.ar    1  UNL1        0.0227
      8 C          21.1883  -28.9278   15.3288 C.ar    1  UNL1        0.0502
      9 S          21.5719  -29.1968   17.0428 S.2     1  UNL1       -0.0603
     10 N          20.8562  -29.9235   11.8126 N.pl3   1  UNL1       -0.2824
     11 H          20.0108  -30.2109   11.3981 H       1  UNL1        0.1551
     12 C          22.0619  -30.2833   11.2431 C.ar    1  UNL1        0.2254
     13 N          22.8596  -29.3512   10.7309 N.ar    1  UNL1       -0.1806
     14 C          24.0202  -29.6975   10.1831 C.ar    1  UNL1        0.2249
     15 N          24.3858  -30.9753   10.1524 N.ar    1  UNL1       -0.1807
     16 C          23.5857  -31.9080   10.6599 C.ar    1  UNL1        0.2249
     17 N          22.4251  -31.5618   11.2076 N.ar    1  UNL1       -0.1806
     18 N          23.9627  -33.2351   10.6229 N.pl3   1  UNL1       -0.2781
     19 C          24.4493  -33.6129    9.2710 C.3     1  UNL1        0.0937
     20 C          24.3149  -35.1499    9.2216 C.3     1  UNL1        0.0233
     21 C          23.2253  -35.4877   10.2645 C.3     1  UNL1        0.0233
     22 C          22.7966  -34.1264   10.8532 C.3     1  UNL1        0.0937
     23 N          24.8482  -28.7299    9.6513 N.pl3   1  UNL1       -0.2781
     24 C          24.2406  -28.1145    8.4437 C.3     1  UNL1        0.0937
     25 C          24.9973  -26.7687    8.3127 C.3     1  UNL1        0.0233
     26 C          25.1752  -26.3277    9.7837 C.3     1  UNL1        0.0233
     27 C          25.0522  -27.6218   10.6093 C.3     1  UNL1        0.0937
     28 S          21.2901  -26.9008   19.2557 S.3     1  UNL1       -0.0786
     29 C          20.1445  -25.5069   19.1115 C.3     1  UNL1        0.1488
     30 N          20.2788  -23.0618   18.7613 N.am    1  UNL1       -0.3003
     31 C          20.9219  -24.2432   18.8466 C.2     1  UNL1        0.2340
     32 O          22.1261  -24.2893   18.7103 O.2     1  UNL1       -0.2741
     33 H          19.3013  -23.0244   18.8720 H       1  UNL1        0.1496
     34 C          21.0344  -21.8335   18.5039 C.3     1  UNL1        0.1372
     35 C          20.6012  -21.2400   17.1618 C.3     1  UNL1        0.2265
     36 O          21.5567  -20.2638   16.7422 O.3     1  UNL1       -0.4736
     37 C          21.5631  -19.2474   12.7439 C.ar    1  UNL1        0.0002
     38 C          21.8464  -18.2895   13.6999 C.ar    1  UNL1        0.0031
     39 C          21.8449  -18.6274   15.0395 C.ar    1  UNL1        0.0369
     40 C          21.5589  -19.9290   15.4250 C.ar    1  UNL1        0.1386
     41 C          21.2805  -20.8895   14.4635 C.ar    1  UNL1        0.0369
     42 C          21.2782  -20.5453   13.1256 C.ar    1  UNL1        0.0031
@<TRIPOS>BOND
     1    37    42   ar
     2    37    38   ar
     3    38    39   ar
     4    39    40   ar
     5    40    41   ar
     6    40    36    1
     7    41    42   ar
     8    36    35    1
     9    35    34    1
    10    34    30    1
    11    30    31   am
    12    31    32    2
    13    31    29    1
    14    29    28    1
    15    28     1    1
    16     1     9   ar
    17     1     2   ar
    18     2     3   ar
    19     3     8   ar
    20     3     4   ar
    21     4     5   ar
    22     5     6   ar
    23     6     7   ar
    24     6    10    1
    25     7     8   ar
    26     8     9   ar
    27    10    12    1
    28    12    17   ar
    29    12    13   ar
    30    13    14   ar
    31    14    15   ar
    32    14    23    1
    33    15    16   ar
    34    16    17   ar
    35    16    18    1
    36    18    22    1
    37    18    19    1
    38    19    20    1
    39    20    21    1
    40    21    22    1
    41    23    27    1
    42    23    24    1
    43    24    25    1
    44    25    26    1
    45    26    27    1
    46    30    33    1
    47    10    11    1
#	Name:			ZINC08439511
#	Creating user name:	trannguyen
#	Creation time:		Wed Dec  7 14:36:19 2022


#	Modifying user name:	trannguyen
#	Modification time:	Wed Dec  7 14:36:19 2022

@<TRIPOS>MOLECULE
ZINC08439511
 53 56 0 0 0
SMALL
GASTEIGER

@<TRIPOS>ATOM
      1 C          15.8409  -22.9447   12.8712 C.3     1  UNL1        0.0478
      2 C          15.6695  -24.2241   13.6488 C.2     1  UNL1        0.0477
      3 C          16.5769  -25.2066   13.5194 C.3     1  UNL1        0.1431
      4 C          16.4514  -26.4958   14.2807 C.3     1  UNL1        0.0680
      5 C          15.0614  -26.6563   14.8276 C.2     1  UNL1        0.0715
      6 C          14.2149  -25.6153   14.9062 C.2     1  UNL1        0.0612
      7 N          14.5915  -24.3715   14.4783 N.2     1  UNL1       -0.2578
      8 C          12.8330  -25.8213   15.4711 C.3     1  UNL1        0.0520
      9 C          17.4366  -26.4977   15.4210 C.ar    1  UNL1       -0.0156
     10 C          18.3510  -27.5275   15.5429 C.ar    1  UNL1       -0.0038
     11 C          19.2575  -27.5268   16.5862 C.ar    1  UNL1        0.0014
     12 C          19.2442  -26.5009   17.5130 C.ar    1  UNL1        0.0241
     13 C          18.3307  -25.4710   17.3906 C.ar    1  UNL1        0.1426
     14 C          17.4265  -25.4696   16.3448 C.ar    1  UNL1        0.0201
     15 N          18.3202  -24.3697   18.3796 N.pl3   1  UNL1        0.0577
     16 O          17.3133  -23.7027   18.5376 O.2     1  UNL1       -0.1261
     17 O          19.3184  -24.1304   19.0354 O.2     1  UNL1       -0.1261
     18 C          17.6749  -25.0219   12.6475 C.2     1  UNL1        0.3225
     19 O          17.5875  -25.3539   11.4800 O.2     1  UNL1       -0.2497
     20 O          18.8198  -24.4775   13.1102 O.3     1  UNL1       -0.4464
     21 C          19.9759  -25.3170   13.1297 C.3     1  UNL1        0.2296
     22 C          20.8758  -24.9188   14.3012 C.3     1  UNL1        0.1375
     23 N          20.7173  -23.4883   14.5743 N.am    1  UNL1       -0.2974
     24 C          21.0396  -22.9938   15.7860 C.2     1  UNL1        0.2489
     25 O          21.4618  -23.7352   16.6525 O.2     1  UNL1       -0.2700
     26 H          20.3754  -22.8882   13.8728 H       1  UNL1        0.1499
     27 C          20.8799  -21.5532   16.0611 C.ar    1  UNL1        0.0870
     28 C          19.9826  -21.1202   17.0404 C.ar    1  UNL1        0.0076
     29 C          19.8410  -19.7734   17.2951 C.ar    1  UNL1        0.0003
     30 C          20.5781  -18.8451   16.5778 C.ar    1  UNL1        0.0031
     31 C          21.4648  -19.2590   15.6041 C.ar    1  UNL1        0.0368
     32 C          21.6233  -20.6110   15.3375 C.ar    1  UNL1        0.1380
     33 O          22.4942  -21.0193   14.3810 O.3     1  UNL1       -0.5054
     34 H          22.5996  -21.9331   14.2026 H       1  UNL1        0.2922
     35 C          14.6348  -27.9300   15.2700 C.2     1  UNL1        0.3388
     36 O          13.9978  -28.6509   14.5250 O.2     1  UNL1       -0.2452
     37 O          14.9341  -28.3457   16.5185 O.3     1  UNL1       -0.4415
     38 C          13.8521  -28.8253   17.3194 C.3     1  UNL1        0.2559
     39 C          13.6199  -27.8671   18.4894 C.3     1  UNL1        0.2560
     40 O          14.5542  -28.1727   19.5581 O.3     1  UNL1       -0.4413
     41 C          15.5690  -27.3071   19.7495 C.2     1  UNL1        0.3413
     42 O          15.3673  -26.1107   19.6851 O.2     1  UNL1       -0.2449
     43 C          16.9244  -27.8119   20.0370 C.ar    1  UNL1        0.0757
     44 C          17.7944  -27.0664   20.8381 C.ar    1  UNL1        0.0077
     45 C          19.0568  -27.5435   21.1092 C.ar    1  UNL1        0.0149
     46 C          19.4715  -28.7606   20.5771 C.ar    1  UNL1        0.0503
     47 C          18.6101  -29.5027   19.7750 C.ar    1  UNL1        0.0149
     48 C          17.3443  -29.0345   19.5045 C.ar    1  UNL1        0.0077
     49 N          20.7531  -29.2377   20.8486 N.am    1  UNL1       -0.2839
     50 C          21.7949  -28.8384   20.0927 C.2     1  UNL1        0.2266
     51 O          21.6356  -27.9916   19.2393 O.2     1  UNL1       -0.2748
     52 C          23.1579  -29.4442   20.3077 C.3     1  UNL1        0.0949
     53 H          20.8970  -29.8663   21.5924 H       1  UNL1        0.1549
@<TRIPOS>BOND
     1     1     2    1
     2     2     7    2
     3     2     3    1
     4     3     4    1
     5     3    18    1
     6     4     5    1
     7     4     9    1
     8     5    35    1
     9     5     6    2
    10     6     8    1
    11     6     7    1
    12    35    36    2
    13    35    37    1
    14    37    38    1
    15    38    39    1
    16    39    40    1
    17    40    41    1
    18    41    42    2
    19    41    43    1
    20    43    48   ar
    21    43    44   ar
    22    44    45   ar
    23    45    46   ar
    24    46    47   ar
    25    46    49    1
    26    47    48   ar
    27    49    50   am
    28    50    51    2
    29    50    52    1
    30     9    14   ar
    31     9    10   ar
    32    10    11   ar
    33    11    12   ar
    34    12    13   ar
    35    13    14   ar
    36    13    15    1
    37    15    16    2
    38    15    17    2
    39    18    19    2
    40    18    20    1
    41    20    21    1
    42    21    22    1
    43    22    23    1
    44    23    24   am
    45    24    25    2
    46    24    27    1
    47    27    32   ar
    48    27    28   ar
    49    28    29   ar
    50    29    30   ar
    51    30    31   ar
    52    31    32   ar
    53    32    33    1
    54    49    53    1
    55    23    26    1
    56    33    34    1
#	Name:			ZINC08441578
#	Creating user name:	trannguyen
#	Creation time:		Wed Dec  7 14:36:19 2022


#	Modifying user name:	trannguyen
#	Modification time:	Wed Dec  7 14:36:19 2022

@<TRIPOS>MOLECULE
ZINC08441578
 47 52 0 0 0
SMALL
GASTEIGER

@<TRIPOS>ATOM
      1 C          16.7380  -27.4870   18.7471 C.3     1  UNL1        0.0528
      2 C          20.0773  -25.7618   18.3685 C.ar    1  UNL1        0.1517
      3 C          19.1036  -26.7465   18.4071 C.ar    1  UNL1        0.0343
      4 C          17.7950  -26.4138   18.7048 C.ar    1  UNL1       -0.0147
      5 C          17.4535  -25.0991   18.9643 C.ar    1  UNL1       -0.0025
      6 C          18.4195  -24.1115   18.9330 C.ar    1  UNL1        0.0174
      7 C          19.7341  -24.4368   18.6298 C.ar    1  UNL1        0.0828
      8 C          21.7088  -27.4738   18.1179 C.3     1  UNL1        0.2525
      9 O          21.3647  -26.0875   18.0758 O.3     1  UNL1       -0.4702
     10 N          20.7133  -23.4380   18.5922 N.pl3   1  UNL1       -0.3091
     11 H          21.6431  -23.6507   18.8360 H       1  UNL1        0.1523
     12 C          20.3791  -22.1678   18.2172 C.2     1  UNL1        0.0653
     13 C          20.2682  -21.8572   16.9059 C.2     1  UNL1        0.0579
     14 C          20.6571  -22.7941   15.9227 C.2     1  UNL1        0.1970
     15 O          21.7880  -23.2476   15.9269 O.2     1  UNL1       -0.2865
     16 C          19.6922  -23.2241   14.8890 C.ar    1  UNL1        0.0422
     17 C          18.6612  -24.1071   15.2177 C.ar    1  UNL1        0.0065
     18 C          17.7664  -24.5121   14.2514 C.ar    1  UNL1        0.0403
     19 C          17.8814  -24.0398   12.9508 C.ar    1  UNL1        0.1764
     20 C          18.9053  -23.1523   12.6176 C.ar    1  UNL1        0.1765
     21 C          19.8056  -22.7436   13.5824 C.ar    1  UNL1        0.0434
     22 O          18.7993  -22.8432   11.2919 O.3     1  UNL1       -0.4346
     23 C          17.9545  -23.8628   10.7265 C.3     1  UNL1        0.4294
     24 O          17.1371  -24.2838   11.8344 O.3     1  UNL1       -0.4346
     25 C          15.8367  -27.3521   17.5468 C.ar    1  UNL1       -0.0147
     26 C          16.3712  -27.4136   16.2729 C.ar    1  UNL1       -0.0025
     27 C          15.5492  -27.2953   15.1684 C.ar    1  UNL1        0.0174
     28 C          14.1850  -27.1043   15.3366 C.ar    1  UNL1        0.0828
     29 C          13.6480  -27.0372   16.6208 C.ar    1  UNL1        0.1517
     30 C          14.4786  -27.1615   17.7226 C.ar    1  UNL1        0.0343
     31 O          12.3122  -26.8498   16.7920 O.3     1  UNL1       -0.4702
     32 C          11.7703  -27.1759   18.0735 C.3     1  UNL1        0.2525
     33 N          13.3511  -26.9789   14.2200 N.pl3   1  UNL1       -0.3091
     34 H          12.7438  -26.2079   14.1432 H       1  UNL1        0.1523
     35 C          13.3797  -27.9263   13.2367 C.2     1  UNL1        0.0653
     36 C          12.2291  -28.4981   12.8152 C.2     1  UNL1        0.0579
     37 C          11.0235  -28.2551   13.5104 C.2     1  UNL1        0.1970
     38 O          10.2354  -27.4255   13.0915 O.2     1  UNL1       -0.2865
     39 C          10.7183  -29.0071   14.7455 C.ar    1  UNL1        0.0422
     40 C          11.5741  -30.0234   15.1759 C.ar    1  UNL1        0.0065
     41 C          11.2881  -30.7236   16.3276 C.ar    1  UNL1        0.0403
     42 C          10.1501  -30.4225   17.0639 C.ar    1  UNL1        0.1764
     43 C           9.2911  -29.4082   16.6392 C.ar    1  UNL1        0.1765
     44 C           9.5761  -28.6992   15.4882 C.ar    1  UNL1        0.0434
     45 O           8.2586  -29.3117   17.5273 O.3     1  UNL1       -0.4346
     46 C           8.7071  -29.9946   18.7127 C.3     1  UNL1        0.4294
     47 O           9.6538  -30.9586   18.2156 O.3     1  UNL1       -0.4346
@<TRIPOS>BOND
     1     8     9    1
     2     9     2    1
     3     2     7   ar
     4     2     3   ar
     5     3     4   ar
     6     4     5   ar
     7     4     1    1
     8     5     6   ar
     9     6     7   ar
    10     7    10    1
    11    10    12    1
    12    12    13    2
    13    13    14    1
    14    14    15    2
    15    14    16    1
    16    16    21   ar
    17    16    17   ar
    18    17    18   ar
    19    18    19   ar
    20    19    24    1
    21    19    20   ar
    22    20    21   ar
    23    20    22    1
    24    22    23    1
    25    23    24    1
    26     1    25    1
    27    25    30   ar
    28    25    26   ar
    29    26    27   ar
    30    27    28   ar
    31    28    29   ar
    32    28    33    1
    33    29    30   ar
    34    29    31    1
    35    31    32    1
    36    33    35    1
    37    35    36    2
    38    36    37    1
    39    37    38    2
    40    37    39    1
    41    39    44   ar
    42    39    40   ar
    43    40    41   ar
    44    41    42   ar
    45    42    47    1
    46    42    43   ar
    47    43    44   ar
    48    43    45    1
    49    45    46    1
    50    46    47    1
    51    10    11    1
    52    33    34    1
#	Name:			ZINC08444441
#	Creating user name:	trannguyen
#	Creation time:		Wed Dec  7 14:36:19 2022


#	Modifying user name:	trannguyen
#	Modification time:	Wed Dec  7 14:36:19 2022

@<TRIPOS>MOLECULE
ZINC08444441
 44 48 0 0 0
SMALL
GASTEIGER

@<TRIPOS>ATOM
      1 C          20.6961  -23.7058   14.9854 C.2     1  UNL1        0.0850
      2 C          21.7056  -24.1305   14.1612 C.ar    1  UNL1        0.1009
      3 N          21.8284  -25.4234   13.6982 N.ar    1  UNL1       -0.2562
      4 C          22.8724  -25.7028   12.8926 C.ar    1  UNL1        0.2720
      5 O          23.0362  -26.8251   12.4516 O.2     1  UNL1       -0.2660
      6 C          23.8077  -24.6200   12.5602 C.ar    1  UNL1        0.0873
      7 C          24.9185  -24.6494   11.7818 C.2     1  UNL1        0.0114
      8 S          23.0879  -23.2550   13.4583 S.2     1  UNL1       -0.0646
      9 C          20.8668  -26.3810   14.0859 C.2     1  UNL1        0.1268
     10 C          19.8453  -26.1235   14.8721 C.2     1  UNL1        0.1257
     11 C          19.6535  -24.7214   15.4117 C.3     1  UNL1        0.0956
     12 N          21.0108  -27.6783   13.6070 N.pl3   1  UNL1       -0.3428
     13 H          21.7653  -27.9040   13.0161 H       1  UNL1        0.1437
     14 H          20.3583  -28.3712   13.8588 H       1  UNL1        0.1437
     15 C          25.4249  -25.9317   11.2719 C.ar    1  UNL1        0.0037
     16 C          26.0812  -26.8203   12.1314 C.ar    1  UNL1        0.0002
     17 C          26.5498  -28.0240   11.6495 C.ar    1  UNL1        0.0031
     18 C          26.3839  -28.3526   10.3158 C.ar    1  UNL1        0.0369
     19 C          25.7388  -27.4761    9.4530 C.ar    1  UNL1        0.1387
     20 C          25.2585  -26.2669    9.9245 C.ar    1  UNL1        0.0369
     21 O          25.5789  -27.8063    8.1444 O.3     1  UNL1       -0.4714
     22 C          24.8393  -26.8935    7.3307 C.3     1  UNL1        0.2525
     23 C          19.6524  -24.7920   16.9171 C.ar    1  UNL1       -0.0096
     24 C          20.7771  -25.2352   17.5887 C.ar    1  UNL1       -0.0034
     25 C          20.7792  -25.3014   18.9695 C.ar    1  UNL1        0.0028
     26 C          19.6571  -24.9245   19.6822 C.ar    1  UNL1        0.0369
     27 C          18.5277  -24.4796   19.0108 C.ar    1  UNL1        0.1384
     28 C          18.5281  -24.4144   17.6248 C.ar    1  UNL1        0.0333
     29 O          17.4228  -24.1082   19.7095 O.3     1  UNL1       -0.4714
     30 C          16.5242  -25.1474   20.1027 C.3     1  UNL1        0.2525
     31 S          18.7075  -27.4021   15.2910 S.O2    1  UNL1        0.0269
     32 O          18.7523  -28.3485   14.2319 O.2     1  UNL1       -0.1644
     33 O          18.9738  -27.7564   16.6411 O.2     1  UNL1       -0.1644
     34 C          17.0946  -26.6933   15.2651 C.ar    1  UNL1        0.1101
     35 C          16.2237  -26.9186   16.3146 C.ar    1  UNL1        0.0187
     36 C          14.9601  -26.3583   16.2969 C.ar    1  UNL1        0.0013
     37 C          14.5635  -25.5819   15.2241 C.ar    1  UNL1        0.0001
     38 C          15.4325  -25.3608   14.1721 C.ar    1  UNL1        0.0013
     39 C          16.6980  -25.9166   14.1925 C.ar    1  UNL1        0.0187
     40 C          20.6297  -22.3760   15.4205 C.2     1  UNL1        0.3398
     41 O          19.8218  -21.6116   14.9226 O.2     1  UNL1       -0.2452
     42 O          21.4614  -21.9408   16.3923 O.3     1  UNL1       -0.4456
     43 C          20.8070  -21.5374   18.6835 C.3     1  UNL1        0.0513
     44 C          20.9548  -20.9433   17.2814 C.3     1  UNL1        0.2089
@<TRIPOS>BOND
     1    43    44    1
     2    44    42    1
     3    42    40    1
     4    40    41    2
     5    40     1    1
     6     1    11    1
     7     1     2    2
     8     2     8   ar
     9     2     3   ar
    10     3     4   ar
    11     3     9    1
    12     4     5    2
    13     4     6   ar
    14     6     7    2
    15     6     8   ar
    16     7    15    1
    17    15    20   ar
    18    15    16   ar
    19    16    17   ar
    20    17    18   ar
    21    18    19   ar
    22    19    20   ar
    23    19    21    1
    24    21    22    1
    25     9    10    2
    26     9    12    1
    27    10    11    1
    28    10    31    1
    29    11    23    1
    30    23    28   ar
    31    23    24   ar
    32    24    25   ar
    33    25    26   ar
    34    26    27   ar
    35    27    28   ar
    36    27    29    1
    37    29    30    1
    38    31    32    2
    39    31    33    2
    40    31    34    1
    41    34    39   ar
    42    34    35   ar
    43    35    36   ar
    44    36    37   ar
    45    37    38   ar
    46    38    39   ar
    47    12    13    1
    48    12    14    1
#	Name:			ZINC08445202
#	Creating user name:	trannguyen
#	Creation time:		Wed Dec  7 14:36:19 2022


#	Modifying user name:	trannguyen
#	Modification time:	Wed Dec  7 14:36:19 2022

@<TRIPOS>MOLECULE
ZINC08445202
 44 49 0 0 0
SMALL
GASTEIGER

@<TRIPOS>ATOM
      1 C          15.7657  -27.3026   20.4095 C.ar    1  UNL1        0.1368
      2 N          15.7782  -26.0168   20.1401 N.ar    1  UNL1       -0.2320
      3 C          16.8310  -25.4099   19.5464 C.ar    1  UNL1        0.0885
      4 C          16.9706  -24.0450   19.2047 C.ar    1  UNL1        0.0209
      5 C          18.1116  -23.5852   18.6018 C.ar    1  UNL1        0.0163
      6 C          19.1710  -24.4396   18.3054 C.ar    1  UNL1        0.0511
      7 C          19.0634  -25.7872   18.6239 C.ar    1  UNL1        0.0227
      8 C          17.9234  -26.2495   19.2318 C.ar    1  UNL1        0.0502
      9 S          17.3622  -27.8341   19.8070 S.2     1  UNL1       -0.0603
     10 N          20.3281  -23.9470   17.6885 N.pl3   1  UNL1       -0.2824
     11 H          21.2050  -24.0669   18.1198 H       1  UNL1        0.1551
     12 C          20.2390  -23.2931   16.4753 C.ar    1  UNL1        0.2254
     13 N          20.9087  -22.1615   16.2794 N.ar    1  UNL1       -0.1806
     14 C          20.8231  -21.5324   15.1115 C.ar    1  UNL1        0.2250
     15 N          20.0722  -22.0376   14.1376 N.ar    1  UNL1       -0.1807
     16 C          19.3983  -23.1663   14.3355 C.ar    1  UNL1        0.2250
     17 N          19.4838  -23.7955   15.5033 N.ar    1  UNL1       -0.1806
     18 N          18.6143  -23.6878   13.3264 N.pl3   1  UNL1       -0.2729
     19 C          18.8185  -22.9550   12.0684 C.3     1  UNL1        0.1257
     20 C          17.8885  -23.5261   10.9947 C.3     1  UNL1        0.1637
     21 O          18.1374  -24.9272   10.8517 O.3     1  UNL1       -0.3501
     22 C          17.9474  -25.6717   12.0579 C.3     1  UNL1        0.1637
     23 C          18.8779  -25.1223   13.1423 C.3     1  UNL1        0.1257
     24 N          21.5183  -20.3575   14.9079 N.pl3   1  UNL1       -0.2729
     25 C          21.4580  -19.4967   16.0981 C.3     1  UNL1        0.1257
     26 C          22.2892  -18.2349   15.8513 C.3     1  UNL1        0.1637
     27 O          21.8053  -17.5731   14.6794 O.3     1  UNL1       -0.3501
     28 C          21.8503  -18.3825   13.5012 C.3     1  UNL1        0.1637
     29 C          21.0146  -19.6457   13.7242 C.3     1  UNL1        0.1257
     30 S          14.4973  -28.2598   21.1706 S.3     1  UNL1       -0.0786
     31 C          13.2511  -26.9746   21.4377 C.3     1  UNL1        0.1488
     32 N          12.4142  -27.2139   19.1223 N.am    1  UNL1       -0.3003
     33 C          12.1351  -27.1417   20.4389 C.2     1  UNL1        0.2340
     34 O          10.9858  -27.2114   20.8198 O.2     1  UNL1       -0.2741
     35 H          13.3472  -27.1574   18.8131 H       1  UNL1        0.1496
     36 C          11.3294  -27.3764   18.1513 C.3     1  UNL1        0.1372
     37 C          11.9192  -27.5229   16.7472 C.3     1  UNL1        0.2265
     38 O          13.3283  -27.7412   16.8430 O.3     1  UNL1       -0.4736
     39 C          15.7836  -24.9050   15.1265 C.ar    1  UNL1        0.0002
     40 C          14.4223  -24.8757   14.8863 C.ar    1  UNL1        0.0031
     41 C          13.5979  -25.8244   15.4600 C.ar    1  UNL1        0.0369
     42 C          14.1372  -26.8069   16.2776 C.ar    1  UNL1        0.1386
     43 C          15.5026  -26.8306   16.5216 C.ar    1  UNL1        0.0369
     44 C          16.3233  -25.8830   15.9414 C.ar    1  UNL1        0.0031
@<TRIPOS>BOND
     1    39    44   ar
     2    39    40   ar
     3    40    41   ar
     4    41    42   ar
     5    42    43   ar
     6    42    38    1
     7    43    44   ar
     8    38    37    1
     9    37    36    1
    10    36    32    1
    11    32    33   am
    12    33    34    2
    13    33    31    1
    14    31    30    1
    15    30     1    1
    16     1     9   ar
    17     1     2   ar
    18     2     3   ar
    19     3     8   ar
    20     3     4   ar
    21     4     5   ar
    22     5     6   ar
    23     6     7   ar
    24     6    10    1
    25     7     8   ar
    26     8     9   ar
    27    10    12    1
    28    12    17   ar
    29    12    13   ar
    30    13    14   ar
    31    14    15   ar
    32    14    24    1
    33    15    16   ar
    34    16    17   ar
    35    16    18    1
    36    18    23    1
    37    18    19    1
    38    19    20    1
    39    20    21    1
    40    21    22    1
    41    22    23    1
    42    24    29    1
    43    24    25    1
    44    25    26    1
    45    26    27    1
    46    27    28    1
    47    28    29    1
    48    32    35    1
    49    10    11    1
#	Name:			ZINC08445208
#	Creating user name:	trannguyen
#	Creation time:		Wed Dec  7 14:36:19 2022


#	Modifying user name:	trannguyen
#	Modification time:	Wed Dec  7 14:36:19 2022

@<TRIPOS>MOLECULE
ZINC08445208
 45 50 0 0 0
SMALL
GASTEIGER

@<TRIPOS>ATOM
      1 C          15.4917  -27.2661   20.1164 C.ar    1  UNL1        0.1368
      2 N          15.6686  -25.9664   20.0426 N.ar    1  UNL1       -0.2320
      3 C          16.7546  -25.4141   19.4557 C.ar    1  UNL1        0.0885
      4 C          17.0635  -24.0417   19.3114 C.ar    1  UNL1        0.0209
      5 C          18.2154  -23.6432   18.6860 C.ar    1  UNL1        0.0163
      6 C          19.1201  -24.5692   18.1719 C.ar    1  UNL1        0.0511
      7 C          18.8461  -25.9250   18.2974 C.ar    1  UNL1        0.0227
      8 C          17.6930  -26.3268   18.9234 C.ar    1  UNL1        0.0502
      9 S          16.9560  -27.8968   19.3091 S.2     1  UNL1       -0.0603
     10 N          20.2919  -24.1384   17.5367 N.pl3   1  UNL1       -0.2824
     11 H          21.1679  -24.3050   17.9540 H       1  UNL1        0.1551
     12 C          20.2184  -23.4800   16.3249 C.ar    1  UNL1        0.2254
     13 N          19.4986  -23.9934   15.3319 N.ar    1  UNL1       -0.1806
     14 C          19.4242  -23.3574   14.1671 C.ar    1  UNL1        0.2250
     15 N          20.0777  -22.2130   13.9917 N.ar    1  UNL1       -0.1807
     16 C          20.8016  -21.7021   14.9829 C.ar    1  UNL1        0.2250
     17 N          20.8719  -22.3356   16.1494 N.ar    1  UNL1       -0.1806
     18 N          21.4803  -20.5144   14.8005 N.pl3   1  UNL1       -0.2729
     19 C          21.3798  -19.6615   15.9936 C.3     1  UNL1        0.1257
     20 C          22.1940  -18.3842   15.7713 C.3     1  UNL1        0.1637
     21 O          21.7238  -17.7242   14.5928 O.3     1  UNL1       -0.3501
     22 C          21.8079  -18.5260   13.4116 C.3     1  UNL1        0.1637
     23 C          20.9898  -19.8048   13.6100 C.3     1  UNL1        0.1257
     24 N          18.6724  -23.8874   13.1382 N.pl3   1  UNL1       -0.2729
     25 C          18.7801  -23.0610   11.9271 C.3     1  UNL1        0.1257
     26 C          17.9814  -23.7152   10.7967 C.3     1  UNL1        0.1637
     27 O          16.6249  -23.8873   11.2159 O.3     1  UNL1       -0.3501
     28 C          16.4831  -24.6877   12.3924 C.3     1  UNL1        0.1637
     29 C          17.2667  -24.0434   13.5391 C.3     1  UNL1        0.1257
     30 S          14.1543  -28.1601   20.8353 S.3     1  UNL1       -0.0786
     31 C          12.8591  -26.8976   20.7664 C.3     1  UNL1        0.1491
     32 N          12.2666  -28.0852   18.6790 N.am    1  UNL1       -0.2832
     33 C          11.9048  -27.2176   19.6448 C.2     1  UNL1        0.2375
     34 O          10.8111  -26.6944   19.6114 O.2     1  UNL1       -0.2738
     35 H          13.1289  -28.5565   18.7385 H       1  UNL1        0.1549
     36 C           9.4981  -29.4030   16.6495 C.ar    1  UNL1        0.0012
     37 C           9.7360  -28.7727   15.4416 C.ar    1  UNL1        0.0039
     38 C          10.8120  -27.9151   15.3062 C.ar    1  UNL1        0.0726
     39 C          11.6530  -27.6852   16.3776 C.ar    1  UNL1        0.0185
     40 C          11.4166  -28.3160   17.5917 C.ar    1  UNL1        0.0503
     41 C          10.3378  -29.1811   17.7230 C.ar    1  UNL1        0.0147
     42 C          11.0679  -27.2310   13.9880 C.3     1  UNL1        0.4186
     43 F          12.1544  -27.8390   13.3502 F       1  UNL1       -0.1659
     44 F           9.9320  -27.3386   13.1785 F       1  UNL1       -0.1659
     45 F          11.3548  -25.8801   14.2118 F       1  UNL1       -0.1659
@<TRIPOS>BOND
     1    36    41   ar
     2    36    37   ar
     3    37    38   ar
     4    38    39   ar
     5    38    42    1
     6    39    40   ar
     7    40    41   ar
     8    40    32    1
     9    32    33   am
    10    33    34    2
    11    33    31    1
    12    31    30    1
    13    30     1    1
    14     1     9   ar
    15     1     2   ar
    16     2     3   ar
    17     3     8   ar
    18     3     4   ar
    19     4     5   ar
    20     5     6   ar
    21     6     7   ar
    22     6    10    1
    23     7     8   ar
    24     8     9   ar
    25    10    12    1
    26    12    17   ar
    27    12    13   ar
    28    13    14   ar
    29    14    15   ar
    30    14    24    1
    31    15    16   ar
    32    16    17   ar
    33    16    18    1
    34    18    23    1
    35    18    19    1
    36    19    20    1
    37    20    21    1
    38    21    22    1
    39    22    23    1
    40    24    29    1
    41    24    25    1
    42    25    26    1
    43    26    27    1
    44    27    28    1
    45    28    29    1
    46    42    43    1
    47    42    44    1
    48    42    45    1
    49    32    35    1
    50    10    11    1
#	Name:			ZINC08446445
#	Creating user name:	trannguyen
#	Creation time:		Wed Dec  7 14:36:19 2022


#	Modifying user name:	trannguyen
#	Modification time:	Wed Dec  7 14:36:19 2022

@<TRIPOS>MOLECULE
ZINC08446445
 49 52 0 0 0
SMALL
GASTEIGER

@<TRIPOS>ATOM
      1 C          12.1356  -28.3313   16.1487 C.ar    1  UNL1        0.1453
      2 C          11.6268  -27.0656   15.8763 C.ar    1  UNL1        0.0738
      3 C          12.4609  -26.0703   15.4030 C.ar    1  UNL1        0.1427
      4 C          13.8197  -26.3470   15.2008 C.ar    1  UNL1        0.1073
      5 C          14.3326  -27.6269   15.4767 C.ar    1  UNL1        0.1544
      6 C          13.4780  -28.6119   15.9511 C.ar    1  UNL1        0.0747
      7 O          15.6402  -27.8910   15.2821 O.2     1  UNL1       -0.4500
      8 C          16.5113  -26.9858   14.8277 C.ar    1  UNL1        0.1826
      9 C          16.1498  -25.7137   14.5224 C.ar    1  UNL1        0.0767
     10 C          14.7418  -25.3162   14.6987 C.ar    1  UNL1        0.2045
     11 O          14.3592  -24.1877   14.4404 O.2     1  UNL1       -0.2863
     12 O          11.9679  -24.8344   15.1366 O.3     1  UNL1       -0.5052
     13 H          11.0588  -24.6533   15.2730 H       1  UNL1        0.2922
     14 C          17.1524  -24.7424   14.0206 C.ar    1  UNL1        0.0063
     15 C          18.3374  -24.5354   14.7247 C.ar    1  UNL1        0.0033
     16 C          19.2696  -23.6347   14.2532 C.ar    1  UNL1        0.0370
     17 C          19.0243  -22.9277   13.0842 C.ar    1  UNL1        0.1414
     18 C          17.8428  -23.1276   12.3837 C.ar    1  UNL1        0.0370
     19 C          16.9087  -24.0304   12.8474 C.ar    1  UNL1        0.0033
     20 O          19.9427  -22.0372   12.6248 O.3     1  UNL1       -0.4506
     21 C          20.0890  -20.8195   13.3580 C.3     1  UNL1        0.3180
     22 C          21.2288  -19.9943   12.7551 C.3     1  UNL1        0.2105
     23 C          21.4189  -18.7194   13.5827 C.3     1  UNL1        0.1728
     24 C          21.6887  -19.1055   15.0402 C.3     1  UNL1        0.1695
     25 C          20.5312  -19.9651   15.5550 C.3     1  UNL1        0.1772
     26 O          20.3892  -21.1182   14.7229 O.3     1  UNL1       -0.3160
     27 O          22.9070  -19.8480   15.1198 O.3     1  UNL1       -0.3794
     28 O          22.5286  -17.9785   13.0712 O.3     1  UNL1       -0.3793
     29 O          22.4346  -20.7608   12.7728 O.3     1  UNL1       -0.3766
     30 H          22.8326  -20.6503   14.5796 H       1  UNL1        0.2105
     31 H          23.3307  -18.5217   13.1210 H       1  UNL1        0.2105
     32 H          22.6537  -20.9977   13.6876 H       1  UNL1        0.2107
     33 C          20.8217  -20.4050   16.9913 C.3     1  UNL1        0.1693
     34 O          21.2894  -21.7553   16.9905 O.3     1  UNL1       -0.3794
     35 H          20.6108  -22.3324   16.6066 H       1  UNL1        0.2105
     36 O          11.3082  -29.3018   16.6135 O.3     1  UNL1       -0.4677
     37 C          11.9198  -30.5018   17.0913 C.3     1  UNL1        0.2633
     38 C          11.1757  -31.6950   16.5495 C.2     1  UNL1        0.3577
     39 O          10.2021  -31.5343   15.8521 O.2     1  UNL1       -0.2461
     40 O          11.5943  -32.9364   16.8417 O.3     1  UNL1       -0.4419
     41 C          11.4441  -33.9436   15.8066 C.3     1  UNL1        0.2557
     42 C          11.8740  -30.5235   18.6204 C.3     1  UNL1        0.0553
     43 C          10.4808  -30.1056   19.0950 C.3     1  UNL1        0.0043
     44 C          10.6123  -29.1280   20.2646 C.3     1  UNL1        0.0001
     45 C          10.1147  -27.7469   19.8334 C.3     1  UNL1        0.0000
     46 C          11.3100  -26.8674   19.4615 C.3     1  UNL1        0.0000
     47 C          12.5066  -27.2344   20.3415 C.3     1  UNL1        0.0000
     48 C          14.9430  -26.6976   20.2068 C.3     1  UNL1        0.0000
     49 C          13.7632  -27.3408   19.4752 C.3     1  UNL1        0.0000
@<TRIPOS>BOND
     1    48    49    1
     2    49    47    1
     3    47    46    1
     4    46    45    1
     5    45    44    1
     6    44    43    1
     7    43    42    1
     8    42    37    1
     9    37    38    1
    10    37    36    1
    11    38    39    2
    12    38    40    1
    13    40    41    1
    14    36     1    1
    15     1     6   ar
    16     1     2   ar
    17     2     3   ar
    18     3     4   ar
    19     3    12    1
    20     4    10   ar
    21     4     5   ar
    22     5     6   ar
    23     5     7   ar
    24     7     8   ar
    25     8     9   ar
    26     9    10   ar
    27     9    14    1
    28    10    11    2
    29    14    19   ar
    30    14    15   ar
    31    15    16   ar
    32    16    17   ar
    33    17    18   ar
    34    17    20    1
    35    18    19   ar
    36    20    21    1
    37    21    26    1
    38    21    22    1
    39    22    23    1
    40    22    29    1
    41    23    24    1
    42    23    28    1
    43    24    25    1
    44    24    27    1
    45    25    26    1
    46    25    33    1
    47    33    34    1
    48    34    35    1
    49    27    30    1
    50    28    31    1
    51    29    32    1
    52    12    13    1
#	Name:			ZINC08446446
#	Creating user name:	trannguyen
#	Creation time:		Wed Dec  7 14:36:19 2022


#	Modifying user name:	trannguyen
#	Modification time:	Wed Dec  7 14:36:19 2022

@<TRIPOS>MOLECULE
ZINC08446446
 49 52 0 0 0
SMALL
GASTEIGER

@<TRIPOS>ATOM
      1 C          19.9228  -22.8204   12.9725 C.ar    1  UNL1        0.1453
      2 C          19.0916  -22.9303   11.8626 C.ar    1  UNL1        0.0738
      3 C          17.8751  -23.5779   11.9688 C.ar    1  UNL1        0.1427
      4 C          17.4885  -24.1221   13.2009 C.ar    1  UNL1        0.1073
      5 C          18.3302  -24.0111   14.3218 C.ar    1  UNL1        0.1544
      6 C          19.5470  -23.3565   14.1938 C.ar    1  UNL1        0.0747
      7 O          17.9571  -24.5359   15.5062 O.2     1  UNL1       -0.4500
      8 C          16.7995  -25.1762   15.6922 C.ar    1  UNL1        0.1826
      9 C          15.8953  -25.3542   14.6957 C.ar    1  UNL1        0.0767
     10 C          16.2026  -24.8198   13.3572 C.ar    1  UNL1        0.2045
     11 O          15.4283  -24.9493   12.4243 O.2     1  UNL1       -0.2863
     12 O          17.0617  -23.6864   10.8880 O.3     1  UNL1       -0.5052
     13 H          17.3238  -23.3212   10.0659 H       1  UNL1        0.2922
     14 C          14.6222  -26.0722   14.9492 C.ar    1  UNL1        0.0063
     15 C          13.4476  -25.3548   15.1689 C.ar    1  UNL1        0.0033
     16 C          12.2644  -26.0255   15.3987 C.ar    1  UNL1        0.0370
     17 C          12.2448  -27.4132   15.4225 C.ar    1  UNL1        0.1414
     18 C          13.4141  -28.1304   15.2098 C.ar    1  UNL1        0.0370
     19 C          14.5994  -27.4657   14.9738 C.ar    1  UNL1        0.0033
     20 O          11.0786  -28.0711   15.6552 O.3     1  UNL1       -0.4506
     21 C          10.9258  -28.6877   16.9353 C.3     1  UNL1        0.3180
     22 C           9.7208  -29.6316   16.9068 C.3     1  UNL1        0.2105
     23 C           9.5275  -30.2422   18.2982 C.3     1  UNL1        0.1728
     24 C           9.3578  -29.1137   19.3200 C.3     1  UNL1        0.1695
     25 C          10.5768  -28.1898   19.2553 C.3     1  UNL1        0.1772
     26 O          10.7170  -27.6806   17.9274 O.3     1  UNL1       -0.3160
     27 O           8.1771  -28.3682   19.0166 O.3     1  UNL1       -0.3794
     28 O           8.3611  -31.0679   18.3001 O.3     1  UNL1       -0.3793
     29 O           8.5499  -28.9000   16.5381 O.3     1  UNL1       -0.3766
     30 H           8.2525  -27.9914   18.1259 H       1  UNL1        0.2105
     31 H           7.5858  -30.5328   18.0688 H       1  UNL1        0.2105
     32 H           8.3938  -28.1930   17.1836 H       1  UNL1        0.2107
     33 C          10.3877  -27.0263   20.2307 C.3     1  UNL1        0.1693
     34 O           9.8933  -25.8873   19.5233 O.3     1  UNL1       -0.3794
     35 H          10.5285  -25.6328   18.8359 H       1  UNL1        0.2105
     36 O          21.1152  -22.1821   12.8579 O.3     1  UNL1       -0.4677
     37 C          22.0197  -22.2944   13.9584 C.3     1  UNL1        0.2633
     38 C          23.2452  -23.0573   13.5257 C.2     1  UNL1        0.3577
     39 O          23.6154  -24.0162   14.1607 O.2     1  UNL1       -0.2461
     40 O          23.9254  -22.6715   12.4348 O.3     1  UNL1       -0.4419
     41 C          24.8823  -23.6159   11.8864 C.3     1  UNL1        0.2557
     42 C          22.4284  -20.8965   14.4275 C.3     1  UNL1        0.0553
     43 C          21.5184  -19.8536   13.7756 C.3     1  UNL1        0.0043
     44 C          20.6681  -19.1748   14.8514 C.3     1  UNL1        0.0001
     45 C          21.3053  -19.4021   16.2237 C.3     1  UNL1        0.0000
     46 C          20.2332  -19.8617   17.2139 C.3     1  UNL1        0.0000
     47 C          20.0106  -21.3677   17.0618 C.3     1  UNL1        0.0000
     48 C          19.5841  -23.3853   18.4724 C.3     1  UNL1        0.0000
     49 C          20.3597  -22.0701   18.3755 C.3     1  UNL1        0.0000
@<TRIPOS>BOND
     1    48    49    1
     2    49    47    1
     3    47    46    1
     4    46    45    1
     5    45    44    1
     6    44    43    1
     7    43    42    1
     8    42    37    1
     9    37    38    1
    10    37    36    1
    11    38    39    2
    12    38    40    1
    13    40    41    1
    14    36     1    1
    15     1     6   ar
    16     1     2   ar
    17     2     3   ar
    18     3     4   ar
    19     3    12    1
    20     4    10   ar
    21     4     5   ar
    22     5     6   ar
    23     5     7   ar
    24     7     8   ar
    25     8     9   ar
    26     9    10   ar
    27     9    14    1
    28    10    11    2
    29    14    19   ar
    30    14    15   ar
    31    15    16   ar
    32    16    17   ar
    33    17    18   ar
    34    17    20    1
    35    18    19   ar
    36    20    21    1
    37    21    26    1
    38    21    22    1
    39    22    23    1
    40    22    29    1
    41    23    24    1
    42    23    28    1
    43    24    25    1
    44    24    27    1
    45    25    26    1
    46    25    33    1
    47    33    34    1
    48    34    35    1
    49    27    30    1
    50    28    31    1
    51    29    32    1
    52    12    13    1
#	Name:			ZINC08452651
#	Creating user name:	trannguyen
#	Creation time:		Wed Dec  7 14:36:20 2022


#	Modifying user name:	trannguyen
#	Modification time:	Wed Dec  7 14:36:20 2022

@<TRIPOS>MOLECULE
ZINC08452651
 43 45 0 0 0
SMALL
GASTEIGER

@<TRIPOS>ATOM
      1 C          13.4542  -26.9059   15.0834 C.ar    1  UNL1        0.0243
      2 C          13.0873  -26.9056   16.4325 C.ar    1  UNL1        0.0417
      3 C          11.8449  -27.3801   16.8074 C.ar    1  UNL1        0.1729
      4 C          10.9603  -27.8572   15.8420 C.ar    1  UNL1        0.1782
      5 C          11.3259  -27.8632   14.5033 C.ar    1  UNL1        0.0671
      6 C          12.5626  -27.3862   14.1207 C.ar    1  UNL1        0.0106
      7 I           9.9938  -28.5907   13.0594 I       1  UNL1       -0.0393
      8 N          15.0672  -25.1437   14.8264 N.2     1  UNL1       -0.1772
      9 C          14.7778  -26.4016   14.6779 C.2     1  UNL1        0.1177
     10 C          16.4234  -23.7244   13.4796 C.2     1  UNL1        0.3184
     11 O          15.4201  -23.2933   12.9477 O.2     1  UNL1       -0.2634
     12 N          16.3258  -24.6641   14.4407 N.am    1  UNL1       -0.1985
     13 H          17.1390  -25.0136   14.8717 H       1  UNL1        0.1777
     14 N          18.7067  -22.9739   14.0005 N.am    1  UNL1       -0.2769
     15 C          17.7626  -23.2140   13.0692 C.2     1  UNL1        0.3048
     16 O          18.0030  -23.0148   11.8959 O.2     1  UNL1       -0.2648
     17 H          18.5364  -23.1995   14.9436 H       1  UNL1        0.1553
     18 C          23.5333  -23.4568   13.2072 C.3     1  UNL1        0.0307
     19 C          22.2834  -22.6154   13.2343 C.ar    1  UNL1       -0.0246
     20 C          22.3438  -21.2774   12.8890 C.ar    1  UNL1       -0.0045
     21 C          21.1995  -20.5017   12.9129 C.ar    1  UNL1        0.0009
     22 C          19.9916  -21.0611   13.2809 C.ar    1  UNL1        0.0143
     23 C          19.9271  -22.4046   13.6277 C.ar    1  UNL1        0.0463
     24 C          21.0802  -23.1798   13.6086 C.ar    1  UNL1       -0.0123
     25 C          21.0164  -24.6362   13.9905 C.3     1  UNL1        0.0320
     26 O          11.4849  -27.3810   18.1189 O.3     1  UNL1       -0.4684
     27 C          12.5284  -27.5648   19.0779 C.3     1  UNL1        0.2526
     28 O           9.7385  -28.3230   16.2131 O.3     1  UNL1       -0.4621
     29 C           9.6914  -29.6255   16.7990 C.3     1  UNL1        0.2898
     30 C           8.7621  -29.6093   17.9853 C.2     1  UNL1        0.2707
     31 O           7.6542  -29.1268   17.8812 O.2     1  UNL1       -0.2707
     32 N           9.1621  -30.1307   19.1620 N.am    1  UNL1       -0.2809
     33 H          10.0889  -30.4440   19.2718 H       1  UNL1        0.1550
     34 C           8.2602  -30.2268   20.2274 C.ar    1  UNL1        0.0503
     35 C           7.2162  -31.1416   20.1751 C.ar    1  UNL1        0.0147
     36 C           6.3281  -31.2344   21.2284 C.ar    1  UNL1        0.0012
     37 C           6.4768  -30.4173   22.3343 C.ar    1  UNL1        0.0039
     38 C           7.5118  -29.5021   22.3872 C.ar    1  UNL1        0.0726
     39 C           8.4071  -29.4084   21.3393 C.ar    1  UNL1        0.0185
     40 C           7.6668  -28.6098   23.5917 C.3     1  UNL1        0.4186
     41 F           8.3645  -29.2944   24.5926 F       1  UNL1       -0.1659
     42 F           8.3771  -27.4595   23.2317 F       1  UNL1       -0.1659
     43 F           6.4028  -28.2470   24.0690 F       1  UNL1       -0.1659
@<TRIPOS>BOND
     1    18    19    1
     2    19    24   ar
     3    19    20   ar
     4    20    21   ar
     5    21    22   ar
     6    22    23   ar
     7    23    24   ar
     8    23    14    1
     9    24    25    1
    10    14    15   am
    11    15    16    2
    12    15    10    1
    13    10    11    2
    14    10    12   am
    15    12     8    1
    16     8     9    2
    17     9     1    1
    18     1     6   ar
    19     1     2   ar
    20     2     3   ar
    21     3     4   ar
    22     3    26    1
    23     4     5   ar
    24     4    28    1
    25     5     6   ar
    26     5     7    1
    27    28    29    1
    28    29    30    1
    29    30    31    2
    30    30    32   am
    31    32    34    1
    32    34    39   ar
    33    34    35   ar
    34    35    36   ar
    35    36    37   ar
    36    37    38   ar
    37    38    39   ar
    38    38    40    1
    39    40    41    1
    40    40    42    1
    41    40    43    1
    42    26    27    1
    43    14    17    1
    44    12    13    1
    45    32    33    1
#	Name:			ZINC08453601
#	Creating user name:	trannguyen
#	Creation time:		Wed Dec  7 14:36:19 2022


#	Modifying user name:	trannguyen
#	Modification time:	Wed Dec  7 14:36:19 2022

@<TRIPOS>MOLECULE
ZINC08453601
 43 46 0 0 0
SMALL
GASTEIGER

@<TRIPOS>ATOM
      1 C          16.1296  -24.5865   13.0216 C.2     1  UNL1        0.2262
      2 O          16.1993  -25.7575   12.7129 O.2     1  UNL1       -0.2748
      3 N          15.6775  -24.2373   14.2423 N.am    1  UNL1       -0.2839
      4 H          15.5473  -23.2874   14.4657 H       1  UNL1        0.1549
      5 C          15.3929  -25.2250   15.1922 C.ar    1  UNL1        0.0504
      6 C          16.4136  -25.7486   15.9777 C.ar    1  UNL1        0.0144
      7 C          16.1357  -26.7235   16.9159 C.ar    1  UNL1       -0.0029
      8 C          14.8436  -27.1867   17.0833 C.ar    1  UNL1       -0.0180
      9 C          13.8104  -26.6699   16.3018 C.ar    1  UNL1        0.0329
     10 C          14.0960  -25.6805   15.3491 C.ar    1  UNL1        0.0172
     11 C          12.5283  -27.3053   16.6498 C.2     1  UNL1        0.1831
     12 O          11.4535  -27.0639   16.1431 O.2     1  UNL1       -0.2904
     13 C          12.7851  -28.3091   17.7476 C.3     1  UNL1        0.1197
     14 C          14.2922  -28.2290   18.0267 C.3     1  UNL1        0.0454
     15 S          11.8460  -27.8674   19.2353 S.3     1  UNL1       -0.0793
     16 C          10.3060  -28.6984   19.0298 C.ar    1  UNL1        0.1610
     17 N           9.0923  -28.1938   18.9169 N.ar    1  UNL1       -0.1332
     18 N           8.0138  -29.0337   18.7621 N.ar    1  UNL1       -0.1254
     19 C           8.1979  -30.3389   18.7272 C.ar    1  UNL1        0.1798
     20 S           9.9696  -30.4497   18.9263 S.2     1  UNL1       -0.0247
     21 N           7.2628  -31.3567   18.5805 N.pl3   1  UNL1       -0.3361
     22 H           6.3083  -31.1374   18.4794 H       1  UNL1        0.1442
     23 H           7.5548  -32.2969   18.5778 H       1  UNL1        0.1442
     24 C          16.5488  -23.5224   12.0404 C.3     1  UNL1        0.0892
     25 C          17.7987  -22.8111   12.5625 C.3     1  UNL1        0.0569
     26 C          19.0317  -23.6709   12.2769 C.3     1  UNL1        0.2059
     27 O          20.1438  -23.1713   13.0222 O.3     1  UNL1       -0.4758
     28 C          19.9026  -23.4096   17.1337 C.ar    1  UNL1       -0.0223
     29 C          19.6496  -24.5285   16.3613 C.ar    1  UNL1       -0.0012
     30 C          19.7299  -24.4514   14.9846 C.ar    1  UNL1        0.0362
     31 C          20.0642  -23.2498   14.3766 C.ar    1  UNL1        0.1345
     32 C          20.3226  -22.1302   15.1537 C.ar    1  UNL1        0.0115
     33 C          20.2354  -22.2112   16.5303 C.ar    1  UNL1       -0.0055
     34 C          19.8147  -23.4968   18.6355 C.3     1  UNL1        0.0263
     35 C          19.0335  -24.7523   19.0287 C.3     1  UNL1        0.0047
     36 C          16.8166  -23.6131   18.8565 C.3     1  UNL1        0.0000
     37 C          17.7732  -24.3492   19.7968 C.3     1  UNL1        0.0003
     38 C          17.0868  -25.6022   20.3442 C.3     1  UNL1        0.0000
     39 C          20.6921  -20.8252   14.4970 C.3     1  UNL1        0.0294
     40 C          21.8685  -20.1934   15.2442 C.3     1  UNL1        0.0048
     41 C          21.8490  -18.6776   15.0376 C.3     1  UNL1        0.0003
     42 C          21.7226  -18.3680   13.5446 C.3     1  UNL1        0.0000
     43 C          20.6575  -18.0762   15.7858 C.3     1  UNL1        0.0000
@<TRIPOS>BOND
     1    36    37    1
     2    37    38    1
     3    37    35    1
     4    35    34    1
     5    34    28    1
     6    28    33   ar
     7    28    29   ar
     8    29    30   ar
     9    30    31   ar
    10    31    32   ar
    11    31    27    1
    12    32    33   ar
    13    32    39    1
    14    39    40    1
    15    40    41    1
    16    41    42    1
    17    41    43    1
    18    27    26    1
    19    26    25    1
    20    25    24    1
    21    24     1    1
    22     1     2    2
    23     1     3   am
    24     3     5    1
    25     5    10   ar
    26     5     6   ar
    27     6     7   ar
    28     7     8   ar
    29     8    14    1
    30     8     9   ar
    31     9    10   ar
    32     9    11    1
    33    11    12    2
    34    11    13    1
    35    13    14    1
    36    13    15    1
    37    15    16    1
    38    16    20   ar
    39    16    17   ar
    40    17    18   ar
    41    18    19   ar
    42    19    20   ar
    43    19    21    1
    44     3     4    1
    45    21    22    1
    46    21    23    1
#	Name:			ZINC08453602
#	Creating user name:	trannguyen
#	Creation time:		Wed Dec  7 14:36:20 2022


#	Modifying user name:	trannguyen
#	Modification time:	Wed Dec  7 14:36:20 2022

@<TRIPOS>MOLECULE
ZINC08453602
 43 46 0 0 0
SMALL
GASTEIGER

@<TRIPOS>ATOM
      1 C          17.5811  -24.2825   12.5919 C.2     1  UNL1        0.2262
      2 O          17.1033  -25.0926   11.8261 O.2     1  UNL1       -0.2748
      3 N          17.3086  -24.3586   13.9097 N.am    1  UNL1       -0.2839
      4 H          17.7567  -23.7504   14.5410 H       1  UNL1        0.1549
      5 C          16.3886  -25.3023   14.3807 C.ar    1  UNL1        0.0504
      6 C          16.8183  -26.5772   14.7309 C.ar    1  UNL1        0.0144
      7 C          15.9127  -27.5109   15.1955 C.ar    1  UNL1       -0.0029
      8 C          14.5736  -27.1878   15.3171 C.ar    1  UNL1       -0.0180
      9 C          14.1292  -25.9121   14.9698 C.ar    1  UNL1        0.0329
     10 C          15.0525  -24.9645   14.5030 C.ar    1  UNL1        0.0172
     11 C          12.6763  -25.7936   15.1782 C.2     1  UNL1        0.1831
     12 O          12.0049  -24.8066   14.9659 O.2     1  UNL1       -0.2904
     13 C          12.1686  -27.1147   15.7031 C.3     1  UNL1        0.1197
     14 C          13.4055  -28.0188   15.7921 C.3     1  UNL1        0.0454
     15 S          10.9543  -27.8219   14.5558 S.3     1  UNL1       -0.0793
     16 C          10.7503  -29.4789   15.1192 C.ar    1  UNL1        0.1610
     17 N          10.2861  -29.9184   16.2731 N.ar    1  UNL1       -0.1332
     18 N          10.2065  -31.2715   16.5080 N.ar    1  UNL1       -0.1254
     19 C          10.6053  -32.1228   15.5833 C.ar    1  UNL1        0.1798
     20 S          11.1243  -31.0127   14.2837 S.2     1  UNL1       -0.0247
     21 N          10.6184  -33.5124   15.6123 N.pl3   1  UNL1       -0.3361
     22 H          10.2962  -33.9912   16.4098 H       1  UNL1        0.1442
     23 H          10.9500  -34.0178   14.8352 H       1  UNL1        0.1442
     24 C          18.4795  -23.1908   12.0701 C.3     1  UNL1        0.0892
     25 C          18.6370  -22.1062   13.1376 C.3     1  UNL1        0.0569
     26 C          20.0025  -21.4334   12.9836 C.3     1  UNL1        0.2059
     27 O          21.0060  -22.2468   13.5946 O.3     1  UNL1       -0.4758
     28 C          20.3838  -23.3567   17.5188 C.ar    1  UNL1       -0.0223
     29 C          20.4335  -22.0169   17.1800 C.ar    1  UNL1       -0.0012
     30 C          20.6416  -21.6427   15.8668 C.ar    1  UNL1        0.0362
     31 C          20.8011  -22.6124   14.8873 C.ar    1  UNL1        0.1345
     32 C          20.7455  -23.9557   15.2289 C.ar    1  UNL1        0.0115
     33 C          20.5429  -24.3247   16.5449 C.ar    1  UNL1       -0.0055
     34 C          20.1562  -23.7622   18.9523 C.3     1  UNL1        0.0263
     35 C          19.0506  -24.8179   19.0143 C.3     1  UNL1        0.0047
     36 C          16.7972  -24.7874   17.9355 C.3     1  UNL1        0.0000
     37 C          17.6850  -24.1283   18.9930 C.3     1  UNL1        0.0003
     38 C          17.0253  -24.2607   20.3672 C.3     1  UNL1        0.0000
     39 C          20.9122  -25.0115   14.1666 C.3     1  UNL1        0.0294
     40 C          21.5453  -26.2603   14.7836 C.3     1  UNL1        0.0048
     41 C          20.9068  -27.5100   14.1741 C.3     1  UNL1        0.0003
     42 C          20.0487  -28.2107   15.2295 C.3     1  UNL1        0.0000
     43 C          20.0283  -27.1071   12.9880 C.3     1  UNL1        0.0000
@<TRIPOS>BOND
     1    36    37    1
     2    37    38    1
     3    37    35    1
     4    35    34    1
     5    34    28    1
     6    28    33   ar
     7    28    29   ar
     8    29    30   ar
     9    30    31   ar
    10    31    32   ar
    11    31    27    1
    12    32    33   ar
    13    32    39    1
    14    39    40    1
    15    40    41    1
    16    41    42    1
    17    41    43    1
    18    27    26    1
    19    26    25    1
    20    25    24    1
    21    24     1    1
    22     1     2    2
    23     1     3   am
    24     3     5    1
    25     5    10   ar
    26     5     6   ar
    27     6     7   ar
    28     7     8   ar
    29     8    14    1
    30     8     9   ar
    31     9    10   ar
    32     9    11    1
    33    11    12    2
    34    11    13    1
    35    13    14    1
    36    13    15    1
    37    15    16    1
    38    16    20   ar
    39    16    17   ar
    40    17    18   ar
    41    18    19   ar
    42    19    20   ar
    43    19    21    1
    44     3     4    1
    45    21    22    1
    46    21    23    1
#	Name:			ZINC08465495
#	Creating user name:	trannguyen
#	Creation time:		Wed Dec  7 14:36:20 2022


#	Modifying user name:	trannguyen
#	Modification time:	Wed Dec  7 14:36:20 2022

@<TRIPOS>MOLECULE
ZINC08465495
 37 38 0 0 0
SMALL
GASTEIGER

@<TRIPOS>ATOM
      1 C          19.3399  -27.3379   13.9317 C.3     1  UNL1        0.0424
      2 C          20.1233  -26.0965   14.3630 C.3     1  UNL1        0.0590
      3 C          19.2339  -24.8800   14.2555 C.2     1  UNL1        0.1123
      4 O          18.7628  -24.3611   15.2389 O.2     1  UNL1       -0.5097
      5 C          18.9533  -24.3330   12.8682 C.2     1  UNL1        0.0468
      6 C          19.5447  -22.9384   12.8235 C.2     1  UNL1        0.1955
      7 O          18.9717  -22.0377   12.2462 O.2     1  UNL1       -0.2868
      8 C          20.8255  -22.7053   13.4954 C.2     1  UNL1        0.0544
      9 C          21.3478  -23.6124   14.3866 C.2     1  UNL1       -0.1026
     10 O          22.5114  -23.3243   14.9857 O.co2   1  UNL1       -0.8754
     11 C          18.1914  -25.3701   12.0406 C.3     1  UNL1        0.0372
     12 C          20.5817  -26.2637   15.8132 C.3     1  UNL1        0.0110
     13 H          18.9469  -24.7126   16.0877 H       1  UNL1        0.2917
     14 C          21.5674  -21.4766   13.2107 C.2     1  UNL1        0.1742
     15 O          22.4858  -21.4921   12.4175 O.2     1  UNL1       -0.2913
     16 C          21.1910  -20.1917   13.9026 C.3     1  UNL1        0.0620
     17 C          21.5699  -19.0045   13.0149 C.3     1  UNL1        0.0081
     18 C          21.9378  -20.0917   15.2342 C.3     1  UNL1        0.0077
     19 C          20.9455  -20.2449   16.3884 C.3     1  UNL1        0.0005
     20 C          22.0159  -29.1896   11.9764 C.ar    1  UNL1        0.1018
     21 C          21.1183  -28.1879   12.3920 C.ar    1  UNL1        0.1381
     22 C          20.3017  -28.4085   13.4845 C.ar    1  UNL1        0.0458
     23 C          20.3683  -29.6122   14.1758 C.ar    1  UNL1        0.1314
     24 C          21.2468  -30.6089   13.7700 C.ar    1  UNL1        0.0457
     25 C          22.0718  -30.4074   12.6797 C.ar    1  UNL1        0.1432
     26 C          21.3045  -31.9120   14.5250 C.3     1  UNL1        0.0374
     27 O          19.5664  -29.8172   15.2508 O.3     1  UNL1       -0.5059
     28 O          21.0556  -27.0101   11.7226 O.3     1  UNL1       -0.5055
     29 H          18.9728  -29.1469   15.5271 H       1  UNL1        0.2922
     30 H          21.6101  -26.8621   10.9819 H       1  UNL1        0.2922
     31 C          22.8836  -28.9666   10.8218 C.2     1  UNL1        0.1789
     32 O          22.4832  -29.2184    9.7040 O.2     1  UNL1       -0.2911
     33 C          24.2757  -28.4241   11.0191 C.3     1  UNL1        0.0694
     34 C          24.8382  -26.0242   11.4274 C.3     1  UNL1        0.0005
     35 C          24.3786  -27.0386   10.3782 C.3     1  UNL1        0.0081
     36 O          22.9327  -31.3797   12.2890 O.3     1  UNL1       -0.4714
     37 C          22.4468  -32.3353   11.3441 C.3     1  UNL1        0.2525
@<TRIPOS>UNITY_ATOM_ATTR
10 1
charge -1
@<TRIPOS>BOND
     1    34    35    1
     2    35    33    1
     3    33    31    1
     4    31    32    2
     5    31    20    1
     6    20    25   ar
     7    20    21   ar
     8    21    22   ar
     9    21    28    1
    10    22    23   ar
    11    22     1    1
    12    23    24   ar
    13    23    27    1
    14    24    25   ar
    15    24    26    1
    16    25    36    1
    17    36    37    1
    18     1     2    1
    19     2     9    1
    20     2     3    1
    21     2    12    1
    22     3     5    2
    23     3     4    1
    24     5    11    1
    25     5     6    1
    26     6     8    1
    27     6     7    2
    28     8     9    2
    29     8    14    1
    30     9    10    1
    31    14    15    2
    32    14    16    1
    33    16    17    1
    34    16    18    1
    35    18    19    1
    36    27    29    1
    37     4    13    1
    38    28    30    1
#	Name:			ZINC08670784
#	Creating user name:	trannguyen
#	Creation time:		Wed Dec  7 14:36:19 2022


#	Modifying user name:	trannguyen
#	Modification time:	Wed Dec  7 14:36:19 2022

@<TRIPOS>MOLECULE
ZINC08670784
 44 46 0 0 0
SMALL
GASTEIGER

@<TRIPOS>ATOM
      1 C          17.4064  -25.0740   20.1872 C.3     1  UNL1        0.1686
      2 C          18.7541  -25.7624   20.2766 C.2     1  UNL1        0.0744
      3 N          19.0746  -26.5586   21.2531 N.2     1  UNL1       -0.3012
      4 C          19.6522  -25.4572   19.1915 C.2     1  UNL1        0.0868
      5 C          19.2325  -24.5980   18.1772 C.2     1  UNL1        0.0809
      6 S          17.5743  -24.1281   18.6275 S.3     1  UNL1       -0.0845
      7 H          18.4285  -26.7384   21.9738 H       1  UNL1        0.1864
      8 N          15.2404  -26.0135   20.9250 N.am    1  UNL1       -0.2829
      9 C          16.2940  -26.0857   20.0876 C.2     1  UNL1        0.2419
     10 O          16.3468  -26.9650   19.2538 O.2     1  UNL1       -0.2734
     11 H          15.1536  -25.2516   21.5424 H       1  UNL1        0.1549
     12 C          12.1323  -27.8406   20.2028 C.ar    1  UNL1        0.1234
     13 C          12.3506  -29.0145   20.9007 C.ar    1  UNL1        0.0200
     14 C          13.5258  -29.1942   21.6065 C.ar    1  UNL1        0.0026
     15 C          14.4884  -28.2035   21.6119 C.ar    1  UNL1        0.0148
     16 C          14.2698  -27.0215   20.9168 C.ar    1  UNL1        0.0517
     17 C          13.0881  -26.8440   20.2088 C.ar    1  UNL1        0.0346
     18 S          10.6331  -27.6166   19.3044 S.O2    1  UNL1        0.0633
     19 O           9.6971  -28.5427   19.8389 O.2     1  UNL1       -0.1528
     20 O          10.3857  -26.2177   19.2695 O.2     1  UNL1       -0.1528
     21 N          10.9234  -28.0850   17.7428 N.3     1  UNL1       -0.1555
     22 C           9.6021  -29.0027   15.9006 C.3     1  UNL1        0.0206
     23 C          10.3131  -29.3100   17.2201 C.3     1  UNL1        0.0958
     24 C          11.7905  -27.2746   16.8841 C.3     1  UNL1        0.0958
     25 C          13.1159  -28.0059   16.6620 C.3     1  UNL1        0.0206
     26 C          20.9882  -26.0479   19.1518 C.2     1  UNL1        0.2487
     27 O          21.9598  -25.3429   18.9473 O.2     1  UNL1       -0.2700
     28 N          21.1450  -27.3730   19.3417 N.am    1  UNL1       -0.2999
     29 H          20.3699  -27.9313   19.5802 H       1  UNL1        0.1498
     30 C          22.4688  -27.9826   19.1933 C.3     1  UNL1        0.1015
     31 C          22.6993  -28.9839   20.3270 C.3     1  UNL1        0.0239
     32 C          22.5485  -28.7077   17.8484 C.3     1  UNL1        0.1617
     33 O          23.1871  -29.9736   18.0268 O.3     1  UNL1       -0.3494
     34 C          22.7380  -30.9838   17.1215 C.3     1  UNL1        0.1742
     35 N          19.9393  -24.2025   17.0762 N.pl3   1  UNL1       -0.3079
     36 H          20.2916  -24.8751   16.4496 H       1  UNL1        0.1527
     37 C          20.1622  -22.8424   16.8399 C.ar    1  UNL1        0.0446
     38 C          20.5030  -22.0001   17.8907 C.ar    1  UNL1        0.0140
     39 C          20.7224  -20.6575   17.6539 C.ar    1  UNL1       -0.0030
     40 C          20.6032  -20.1512   16.3723 C.ar    1  UNL1       -0.0221
     41 C          20.2646  -20.9870   15.3243 C.ar    1  UNL1       -0.0073
     42 C          20.0489  -22.3320   15.5534 C.ar    1  UNL1       -0.0087
     43 C          19.6861  -23.2434   14.4094 C.3     1  UNL1        0.0323
     44 C          20.8434  -18.6854   16.1177 C.3     1  UNL1        0.0310
@<TRIPOS>BOND
     1    22    23    1
     2    23    21    1
     3    21    24    1
     4    21    18    1
     5    24    25    1
     6    18    19    2
     7    18    20    2
     8    18    12    1
     9    12    17   ar
    10    12    13   ar
    11    13    14   ar
    12    14    15   ar
    13    15    16   ar
    14    16    17   ar
    15    16     8    1
    16     8     9   am
    17     9    10    2
    18     9     1    1
    19     1     6    1
    20     1     2    1
    21     2     3    2
    22     2     4    1
    23     4     5    2
    24     4    26    1
    25     5     6    1
    26     5    35    1
    27    35    37    1
    28    37    42   ar
    29    37    38   ar
    30    38    39   ar
    31    39    40   ar
    32    40    41   ar
    33    40    44    1
    34    41    42   ar
    35    42    43    1
    36    26    27    2
    37    26    28   am
    38    28    30    1
    39    30    31    1
    40    30    32    1
    41    32    33    1
    42    33    34    1
    43     8    11    1
    44     3     7    1
    45    35    36    1
    46    28    29    1
#	Name:			ZINC08696038
#	Creating user name:	trannguyen
#	Creation time:		Wed Dec  7 14:36:20 2022


#	Modifying user name:	trannguyen
#	Modification time:	Wed Dec  7 14:36:20 2022

@<TRIPOS>MOLECULE
ZINC08696038
 49 55 0 0 0
SMALL
GASTEIGER

@<TRIPOS>ATOM
      1 C          18.1186  -26.1364   15.8205 C.2     1  UNL1        0.2261
      2 O          18.3805  -25.5143   14.8128 O.2     1  UNL1       -0.2749
      3 N          19.0072  -26.1849   16.8327 N.am    1  UNL1       -0.2706
      4 C          20.2424  -25.4004   16.7611 C.3     1  UNL1        0.1293
      5 C          19.9092  -23.9589   16.3713 C.3     1  UNL1        0.0271
      6 C          18.9778  -23.3490   17.4208 C.3     1  UNL1        0.0021
      7 C          19.6696  -23.3614   18.7853 C.3     1  UNL1        0.0001
      8 C          20.0028  -24.8029   19.1752 C.3     1  UNL1        0.0021
      9 C          20.9342  -25.4127   18.1258 C.3     1  UNL1        0.0271
     10 C          21.1598  -26.0011   15.7274 C.2     1  UNL1        0.2422
     11 O          21.7918  -27.0034   15.9865 O.2     1  UNL1       -0.2731
     12 N          21.2779  -25.4247   14.5149 N.am    1  UNL1       -0.2826
     13 H          20.7877  -24.5948   14.3145 H       1  UNL1        0.1549
     14 C          22.0987  -26.0066   13.5392 C.ar    1  UNL1        0.0504
     15 C          23.3654  -25.4909   13.3000 C.ar    1  UNL1        0.0159
     16 C          24.1742  -26.0643   12.3391 C.ar    1  UNL1        0.0158
     17 C          23.7205  -27.1569   11.6116 C.ar    1  UNL1        0.0481
     18 C          22.4533  -27.6726   11.8510 C.ar    1  UNL1        0.0158
     19 C          21.6450  -27.0992   12.8122 C.ar    1  UNL1        0.0159
     20 N          24.5396  -27.7378   10.6377 N.pl3   1  UNL1       -0.3028
     21 C          25.9364  -27.7989   11.0922 C.3     1  UNL1        0.1231
     22 C          26.7851  -28.4936   10.0240 C.3     1  UNL1        0.1636
     23 O          26.6491  -27.7933    8.7845 O.3     1  UNL1       -0.3501
     24 C          25.3015  -27.7153    8.3120 C.3     1  UNL1        0.1636
     25 C          24.4379  -27.0127    9.3629 C.3     1  UNL1        0.1231
     26 C          16.7995  -26.8551   15.9407 C.3     1  UNL1        0.0856
     27 C          14.2473  -26.3476   16.2095 C.3     1  UNL1        0.0239
     28 C          15.6910  -25.8415   16.2318 C.3     1  UNL1        0.0135
     29 C          14.7636  -25.4578   15.0770 C.3     1  UNL1        0.0046
     30 C          14.2585  -24.0145   15.0262 C.3     1  UNL1        0.0003
     31 C          15.0156  -26.1172   13.7195 C.3     1  UNL1        0.0003
     32 C          15.3813  -28.7470   17.8194 C.3     1  UNL1        0.0494
     33 C          14.5118  -28.8501   16.5928 C.ar    1  UNL1        0.0299
     34 C          14.0260  -27.8063   15.9027 C.ar    1  UNL1       -0.0097
     35 C          13.2449  -28.3541   14.7911 C.ar    1  UNL1        0.0127
     36 C          12.5150  -27.7859   13.7451 C.ar    1  UNL1        0.0012
     37 C          11.8811  -28.5932   12.8434 C.ar    1  UNL1        0.0001
     38 C          11.9565  -29.9747   12.9589 C.ar    1  UNL1        0.0015
     39 C          12.6710  -30.5562   13.9831 C.ar    1  UNL1        0.0169
     40 C          13.3245  -29.7533   14.9125 C.ar    1  UNL1        0.0561
     41 N          14.0986  -30.0216   16.0190 N.ar    1  UNL1       -0.3567
     42 H          14.3216  -30.9221   16.3484 H       1  UNL1        0.1656
     43 C          18.7379  -27.0221   18.0043 C.3     1  UNL1        0.1220
     44 C          19.4295  -28.3511   17.8418 C.ar    1  UNL1        0.0169
     45 C          19.1863  -29.1374   16.7258 C.ar    1  UNL1        0.0005
     46 C          19.8450  -30.3524   16.6184 C.ar    1  UNL1        0.0204
     47 C          20.7162  -30.7371   17.6202 C.ar    1  UNL1        0.0989
     48 N          20.9233  -29.9634   18.6677 N.ar    1  UNL1       -0.2426
     49 C          20.3186  -28.7989   18.8002 C.ar    1  UNL1        0.0962
@<TRIPOS>BOND
     1    32    33    1
     2    33    41   ar
     3    33    34   ar
     4    34    35   ar
     5    34    27    1
     6    35    40   ar
     7    35    36   ar
     8    36    37   ar
     9    37    38   ar
    10    38    39   ar
    11    39    40   ar
    12    40    41   ar
    13    27    29    1
    14    27    28    1
    15    28    29    1
    16    28    26    1
    17    29    30    1
    18    29    31    1
    19    26     1    1
    20     1     2    2
    21     1     3   am
    22     3    43    1
    23     3     4    1
    24    43    44    1
    25    44    49   ar
    26    44    45   ar
    27    45    46   ar
    28    46    47   ar
    29    47    48   ar
    30    48    49   ar
    31     4     9    1
    32     4     5    1
    33     4    10    1
    34     5     6    1
    35     6     7    1
    36     7     8    1
    37     8     9    1
    38    10    11    2
    39    10    12   am
    40    12    14    1
    41    14    19   ar
    42    14    15   ar
    43    15    16   ar
    44    16    17   ar
    45    17    18   ar
    46    17    20    1
    47    18    19   ar
    48    20    25    1
    49    20    21    1
    50    21    22    1
    51    22    23    1
    52    23    24    1
    53    24    25    1
    54    41    42    1
    55    12    13    1
#	Name:			ZINC08722037
#	Creating user name:	trannguyen
#	Creation time:		Wed Dec  7 14:36:20 2022


#	Modifying user name:	trannguyen
#	Modification time:	Wed Dec  7 14:36:20 2022

@<TRIPOS>MOLECULE
ZINC08722037
 39 41 0 0 0
SMALL
GASTEIGER

@<TRIPOS>ATOM
      1 C          22.6533  -28.5114   11.5274 C.ar    1  UNL1        0.0209
      2 C          22.1721  -29.8214   11.6091 C.ar    1  UNL1        0.0047
      3 C          22.8940  -30.8541   11.0516 C.ar    1  UNL1        0.0370
      4 C          24.0981  -30.5951   10.4089 C.ar    1  UNL1        0.1393
      5 C          24.5828  -29.2955   10.3298 C.ar    1  UNL1        0.0370
      6 C          23.8654  -28.2558   10.8797 C.ar    1  UNL1        0.0047
      7 N          22.4821  -26.5290   12.8742 N.2     1  UNL1       -0.1772
      8 C          21.8848  -27.4036   12.1216 C.2     1  UNL1        0.1176
      9 C          22.3518  -24.2942   13.6841 C.2     1  UNL1        0.3184
     10 O          23.5265  -24.1427   13.4149 O.2     1  UNL1       -0.2634
     11 N          21.7514  -25.4757   13.4393 N.am    1  UNL1       -0.1985
     12 H          20.7993  -25.5985   13.6575 H       1  UNL1        0.1777
     13 N          22.0779  -22.4889   15.3314 N.am    1  UNL1       -0.2742
     14 C          21.5743  -23.1733   14.2853 C.2     1  UNL1        0.3049
     15 O          20.4874  -22.8771   13.8326 O.2     1  UNL1       -0.2648
     16 H          22.9281  -22.7702   15.7405 H       1  UNL1        0.1554
     17 C          20.5517  -21.5184   16.9386 C.ar    1  UNL1        0.1519
     18 C          19.8759  -20.4151   17.4342 C.ar    1  UNL1        0.0382
     19 C          20.0363  -19.1794   16.8353 C.ar    1  UNL1        0.0032
     20 C          20.8708  -19.0397   15.7414 C.ar    1  UNL1        0.0015
     21 C          21.5524  -20.1338   15.2436 C.ar    1  UNL1        0.0178
     22 C          21.3926  -21.3787   15.8360 C.ar    1  UNL1        0.0851
     23 O          20.3953  -22.7342   17.5268 O.3     1  UNL1       -0.4742
     24 C          18.3927  -23.7362   18.4358 C.3     1  UNL1        0.0512
     25 C          19.2257  -23.4777   17.1787 C.3     1  UNL1        0.2056
     26 O          24.8065  -31.6163    9.8612 O.3     1  UNL1       -0.4656
     27 C          24.4948  -32.9365   10.3107 C.3     1  UNL1        0.2893
     28 C          25.7719  -33.6914   10.5759 C.2     1  UNL1        0.2672
     29 O          26.2820  -34.3490    9.6938 O.2     1  UNL1       -0.2711
     30 N          26.3471  -33.6356   11.7935 N.am    1  UNL1       -0.2992
     31 H          25.9331  -33.1017   12.5097 H       1  UNL1        0.1498
     32 C          27.5886  -34.3695   12.0514 C.3     1  UNL1        0.0942
     33 C          27.2633  -35.6950   12.7428 C.3     1  UNL1        0.0262
     34 C          28.4838  -33.5455   12.9407 C.ar    1  UNL1       -0.0045
     35 C          29.8477  -33.7706   12.9476 C.ar    1  UNL1       -0.0027
     36 C          30.6692  -33.0118   13.7601 C.ar    1  UNL1       -0.0003
     37 C          30.1259  -32.0339   14.5722 C.ar    1  UNL1       -0.0000
     38 C          28.7615  -31.8124   14.5690 C.ar    1  UNL1       -0.0003
     39 C          27.9403  -32.5682   13.7534 C.ar    1  UNL1       -0.0027
@<TRIPOS>BOND
     1    24    25    1
     2    25    23    1
     3    23    17    1
     4    17    22   ar
     5    17    18   ar
     6    18    19   ar
     7    19    20   ar
     8    20    21   ar
     9    21    22   ar
    10    22    13    1
    11    13    14   am
    12    14    15    2
    13    14     9    1
    14     9    10    2
    15     9    11   am
    16    11     7    1
    17     7     8    2
    18     8     1    1
    19     1     6   ar
    20     1     2   ar
    21     2     3   ar
    22     3     4   ar
    23     4     5   ar
    24     4    26    1
    25     5     6   ar
    26    26    27    1
    27    27    28    1
    28    28    29    2
    29    28    30   am
    30    30    32    1
    31    32    33    1
    32    32    34    1
    33    34    39   ar
    34    34    35   ar
    35    35    36   ar
    36    36    37   ar
    37    37    38   ar
    38    38    39   ar
    39    13    16    1
    40    11    12    1
    41    30    31    1
#	Name:			ZINC08794787
#	Creating user name:	trannguyen
#	Creation time:		Wed Dec  7 14:36:19 2022


#	Modifying user name:	trannguyen
#	Modification time:	Wed Dec  7 14:36:19 2022

@<TRIPOS>MOLECULE
ZINC08794787
 39 41 0 0 0
SMALL
GASTEIGER

@<TRIPOS>ATOM
      1 C          21.3056  -26.8657   13.6440 C.3     1  UNL1        0.1503
      2 C          19.0801  -23.0041   13.2540 C.ar    1  UNL1        0.1925
      3 N          19.8122  -21.9027   13.3826 N.ar    1  UNL1       -0.2063
      4 C          21.1179  -21.9696   13.6095 C.ar    1  UNL1        0.1351
      5 C          21.7186  -23.2406   13.7124 C.ar    1  UNL1        0.0878
      6 C          23.0341  -23.6991   13.9406 C.ar    1  UNL1        0.1260
      7 N          23.0237  -25.0015   13.9374 N.ar    1  UNL1       -0.1662
      8 N          21.7198  -25.4623   13.7151 N.ar    1  UNL1       -0.2321
      9 C          20.9038  -24.3801   13.5694 C.ar    1  UNL1        0.1658
     10 N          19.6012  -24.2164   13.3435 N.ar    1  UNL1       -0.2022
     11 N          21.8712  -20.8198   13.7423 N.pl3   1  UNL1       -0.3179
     12 H          22.2770  -20.4027   12.9482 H       1  UNL1        0.1482
     13 C          22.0666  -20.2207   15.0648 C.3     1  UNL1        0.0881
     14 C          21.9047  -18.7025   14.9659 C.3     1  UNL1        0.0196
     15 C          21.7717  -18.2984   13.4962 C.3     1  UNL1        0.0017
     16 C          20.6500  -18.2727   15.7286 C.3     1  UNL1        0.0017
     17 S          17.3514  -22.8437   12.9529 S.3     1  UNL1       -0.0756
     18 C          16.8276  -24.5572   13.2096 C.3     1  UNL1        0.0652
     19 C          16.7103  -25.6034   15.4755 C.3     1  UNL1        0.0009
     20 C          16.0121  -24.6531   14.5007 C.3     1  UNL1        0.0121
     21 C          20.6564  -27.2735   14.9681 C.3     1  UNL1        0.1161
     22 N          21.6849  -27.3716   16.0066 N.am    1  UNL1       -0.2989
     23 C          21.4946  -28.1781   17.0695 C.2     1  UNL1        0.2460
     24 O          20.4682  -28.8250   17.1666 O.2     1  UNL1       -0.2701
     25 H          22.5151  -26.8484   15.9281 H       1  UNL1        0.1498
     26 C          22.5215  -28.2760   18.1063 C.2     1  UNL1        0.0577
     27 C          22.3372  -27.6697   19.2982 C.2     1  UNL1        0.0049
     28 C          21.2307  -26.7182   19.4754 C.ar    1  UNL1        0.0064
     29 C          20.0925  -27.0927   20.1984 C.ar    1  UNL1        0.0403
     30 C          19.0567  -26.1939   20.3673 C.ar    1  UNL1        0.1754
     31 C          19.1397  -24.9203   19.8098 C.ar    1  UNL1        0.2061
     32 C          20.2686  -24.5459   19.0852 C.ar    1  UNL1        0.1754
     33 C          21.3106  -25.4377   18.9166 C.ar    1  UNL1        0.0403
     34 O          20.3453  -23.3012   18.5425 O.3     1  UNL1       -0.4683
     35 C          20.3012  -23.2112   17.1170 C.3     1  UNL1        0.2526
     36 O          18.1163  -24.0408   19.9728 O.3     1  UNL1       -0.4654
     37 C          17.0937  -24.0432   18.9748 C.3     1  UNL1        0.2528
     38 O          17.9524  -26.5551   21.0741 O.3     1  UNL1       -0.4683
     39 C          17.9560  -27.8576   21.6622 C.3     1  UNL1        0.2526
@<TRIPOS>BOND
     1    19    20    1
     2    20    18    1
     3    18    17    1
     4    17     2    1
     5     2    10   ar
     6     2     3   ar
     7     3     4   ar
     8     4     5   ar
     9     4    11    1
    10     5     9   ar
    11     5     6   ar
    12     6     7   ar
    13     7     8   ar
    14     8     9   ar
    15     8     1    1
    16     9    10   ar
    17     1    21    1
    18    21    22    1
    19    22    23   am
    20    23    24    2
    21    23    26    1
    22    26    27    2
    23    27    28    1
    24    28    33   ar
    25    28    29   ar
    26    29    30   ar
    27    30    31   ar
    28    30    38    1
    29    31    32   ar
    30    31    36    1
    31    32    33   ar
    32    32    34    1
    33    34    35    1
    34    36    37    1
    35    38    39    1
    36    11    13    1
    37    13    14    1
    38    14    15    1
    39    14    16    1
    40    22    25    1
    41    11    12    1
#	Name:			ZINC08796497
#	Creating user name:	trannguyen
#	Creation time:		Wed Dec  7 14:36:19 2022


#	Modifying user name:	trannguyen
#	Modification time:	Wed Dec  7 14:36:19 2022

@<TRIPOS>MOLECULE
ZINC08796497
 39 42 0 0 0
SMALL
GASTEIGER

@<TRIPOS>ATOM
      1 C          16.0322  -27.2236   18.9078 C.3     1  UNL1        0.1503
      2 N          16.0696  -26.3196   17.7556 N.ar    1  UNL1       -0.2321
      3 C          15.4970  -26.5503   16.5401 C.ar    1  UNL1        0.1658
      4 C          15.7787  -25.4236   15.7431 C.ar    1  UNL1        0.0878
      5 C          16.5406  -24.5374   16.5351 C.ar    1  UNL1        0.1260
      6 N          16.7049  -25.0722   17.7114 N.ar    1  UNL1       -0.1662
      7 C          15.2925  -25.3992   14.4208 C.ar    1  UNL1        0.1351
      8 N          14.5866  -26.4359   13.9863 N.ar    1  UNL1       -0.2063
      9 C          14.3396  -27.4770   14.7737 C.ar    1  UNL1        0.1925
     10 N          14.7760  -27.5424   16.0208 N.ar    1  UNL1       -0.2022
     11 N          15.5449  -24.3213   13.5954 N.pl3   1  UNL1       -0.3179
     12 H          15.3423  -23.4081   13.9024 H       1  UNL1        0.1482
     13 C          16.1143  -24.5366   12.2628 C.3     1  UNL1        0.0881
     14 C          17.5854  -24.1159   12.2628 C.3     1  UNL1        0.0196
     15 C          18.0253  -23.7992   10.8321 C.3     1  UNL1        0.0017
     16 C          17.7603  -22.8728   13.1372 C.3     1  UNL1        0.0017
     17 S          13.3966  -28.8205   14.1332 S.3     1  UNL1       -0.0765
     18 C          11.8884  -27.9439   13.6504 C.3     1  UNL1        0.0549
     19 C          10.9906  -28.8816   12.8407 C.3     1  UNL1        0.0121
     20 C          11.1437  -27.4813   14.9044 C.3     1  UNL1        0.0121
     21 C          17.1311  -26.8332   19.8983 C.3     1  UNL1        0.1159
     22 C          19.3698  -25.9185   19.6009 C.2     1  UNL1        0.2242
     23 O          19.1562  -25.1707   20.5316 O.2     1  UNL1       -0.2750
     24 N          18.4208  -26.7895   19.2047 N.am    1  UNL1       -0.3024
     25 H          18.5942  -27.3965   18.4492 H       1  UNL1        0.1495
     26 N          20.7098  -23.9641   17.4370 N.am    1  UNL1       -0.2581
     27 C          21.2040  -24.4199   18.7416 C.3     1  UNL1        0.1077
     28 C          20.6965  -25.8736   18.8875 C.3     1  UNL1        0.1057
     29 C          20.5448  -26.3021   17.4095 C.3     1  UNL1        0.0964
     30 C          20.3413  -25.0009   16.6650 C.2     1  UNL1        0.2299
     31 O          19.9090  -24.9070   15.5357 O.2     1  UNL1       -0.2745
     32 C          20.4027  -18.5284   15.8424 C.3     1  UNL1        0.0307
     33 C          20.4872  -19.9717   16.2672 C.ar    1  UNL1       -0.0257
     34 C          20.0343  -20.3507   17.5179 C.ar    1  UNL1       -0.0033
     35 C          20.1099  -21.6725   17.9099 C.ar    1  UNL1        0.0146
     36 C          20.6371  -22.6228   17.0450 C.ar    1  UNL1        0.0535
     37 C          21.0961  -22.2383   15.7922 C.ar    1  UNL1        0.0103
     38 C          21.0177  -20.9143   15.4061 C.ar    1  UNL1       -0.0246
     39 C          21.5105  -20.4970   14.0444 C.3     1  UNL1        0.0307
@<TRIPOS>BOND
     1    32    33    1
     2    33    38   ar
     3    33    34   ar
     4    34    35   ar
     5    35    36   ar
     6    36    37   ar
     7    36    26    1
     8    37    38   ar
     9    38    39    1
    10    26    30   am
    11    26    27    1
    12    27    28    1
    13    28    29    1
    14    28    22    1
    15    29    30    1
    16    30    31    2
    17    22    23    2
    18    22    24   am
    19    24    21    1
    20    21     1    1
    21     1     2    1
    22     2     6   ar
    23     2     3   ar
    24     3    10   ar
    25     3     4   ar
    26     4     5   ar
    27     4     7   ar
    28     5     6   ar
    29     7     8   ar
    30     7    11    1
    31     8     9   ar
    32     9    10   ar
    33     9    17    1
    34    17    18    1
    35    18    19    1
    36    18    20    1
    37    11    13    1
    38    13    14    1
    39    14    15    1
    40    14    16    1
    41    24    25    1
    42    11    12    1
#	Name:			ZINC08870583
#	Creating user name:	trannguyen
#	Creation time:		Wed Dec  7 14:36:19 2022


#	Modifying user name:	trannguyen
#	Modification time:	Wed Dec  7 14:36:19 2022

@<TRIPOS>MOLECULE
ZINC08870583
 35 35 0 0 0
SMALL
GASTEIGER

@<TRIPOS>ATOM
      1 C          19.3459  -23.6505   15.3792 C.ar    1  UNL1       -0.1498
      2 C          19.7271  -22.3535   15.0963 C.ar    1  UNL1       -0.0207
      3 C          20.0036  -21.4700   16.1310 C.ar    1  UNL1        0.0629
      4 C          19.8969  -21.8904   17.4503 C.ar    1  UNL1        0.0170
      5 C          19.5155  -23.1869   17.7331 C.ar    1  UNL1        0.0142
      6 C          19.2393  -24.0708   16.6981 C.ar    1  UNL1        0.0309
      7 N          18.8526  -25.3854   16.9847 N.pl3   1  UNL1       -0.2080
      8 H          17.9167  -25.6624   16.8557 H       1  UNL1        0.1747
      9 S          19.9693  -26.4745   17.5408 S.O2    1  UNL1        0.1130
     10 O          19.4148  -27.7663   17.3336 O.2     1  UNL1       -0.1379
     11 O          21.2222  -26.0865   16.9940 O.2     1  UNL1       -0.1379
     12 N          20.0830  -26.2657   19.1797 N.3     1  UNL1       -0.1399
     13 C          18.9208  -26.5238   20.0334 C.3     1  UNL1        0.1163
     14 C          21.3459  -25.8227   19.7758 C.3     1  UNL1        0.1163
     15 N          20.3904  -20.1553   15.8443 N.pl3   1  UNL1       -0.2053
     16 H          19.7645  -19.4123   16.0035 H       1  UNL1        0.1748
     17 S          21.9007  -19.8502   15.2376 S.O2    1  UNL1        0.1131
     18 O          22.3478  -18.6470   15.8472 O.2     1  UNL1       -0.1379
     19 O          22.6287  -21.0671   15.3294 O.2     1  UNL1       -0.1379
     20 N          21.7234  -19.5255   13.6234 N.3     1  UNL1       -0.1399
     21 C          21.4888  -20.6194   12.6776 C.3     1  UNL1        0.1163
     22 C          21.8012  -18.1442   13.1413 C.3     1  UNL1        0.1163
     23 C          19.0397  -24.6077   14.2562 C.2     1  UNL1       -0.1116
     24 C          20.3275  -25.1617   13.7031 C.2     1  UNL1        0.1663
     25 O          21.3697  -24.5850   13.9058 O.2     1  UNL1       -0.2898
     26 O          20.3166  -26.2960   12.9853 O.3     1  UNL1       -0.4772
     27 C          20.8078  -28.4497   14.0101 C.3     1  UNL1        0.0472
     28 C          21.3775  -27.2521   13.2473 C.3     1  UNL1        0.1662
     29 C          21.9735  -27.7287   11.9211 C.3     1  UNL1        0.0472
     30 C          18.2961  -23.8811   13.1653 C.2     1  UNL1        0.1020
     31 O          18.9014  -23.4084   12.2334 O.2     1  UNL1       -0.3244
     32 C          16.7971  -23.7440   13.2375 C.3     1  UNL1        0.4205
     33 F          16.2113  -24.4744   12.1980 F       1  UNL1       -0.1658
     34 F          16.3426  -24.2349   14.4663 F       1  UNL1       -0.1658
     35 F          16.4458  -22.3953   13.1155 F       1  UNL1       -0.1658
@<TRIPOS>UNITY_ATOM_ATTR
23 1
charge -1
@<TRIPOS>BOND
     1    27    28    1
     2    28    29    1
     3    28    26    1
     4    26    24    1
     5    24    25    2
     6    24    23    1
     7    23     1    1
     8    23    30    1
     9     1     6   ar
    10     1     2   ar
    11     2     3   ar
    12     3     4   ar
    13     3    15    1
    14     4     5   ar
    15     5     6   ar
    16     6     7    1
    17     7     9    1
    18     9    10    2
    19     9    11    2
    20     9    12    1
    21    12    13    1
    22    12    14    1
    23    15    17    1
    24    17    18    2
    25    17    19    2
    26    17    20    1
    27    20    21    1
    28    20    22    1
    29    30    31    2
    30    30    32    1
    31    32    33    1
    32    32    34    1
    33    32    35    1
    34     7     8    1
    35    15    16    1
#	Name:			ZINC08871047
#	Creating user name:	trannguyen
#	Creation time:		Wed Dec  7 14:36:19 2022


#	Modifying user name:	trannguyen
#	Modification time:	Wed Dec  7 14:36:19 2022

@<TRIPOS>MOLECULE
ZINC08871047
 38 42 0 0 0
SMALL
GASTEIGER

@<TRIPOS>ATOM
      1 N          20.6603  -26.7266   14.0630 N.ar    1  UNL1       -0.2789
      2 C          20.9346  -26.6814   15.3978 C.ar    1  UNL1        0.1188
      3 C          20.0242  -25.8577   16.0526 C.ar    1  UNL1        0.1259
      4 C          19.1035  -25.3490   15.0219 C.ar    1  UNL1        0.1245
      5 C          19.5656  -25.9380   13.7622 C.ar    1  UNL1        0.1666
      6 N          18.9234  -25.6656   12.6467 N.ar    1  UNL1       -0.2248
      7 C          17.8629  -24.8483   12.6700 C.ar    1  UNL1        0.1005
      8 C          17.1730  -24.5475   11.4809 C.ar    1  UNL1        0.0207
      9 C          16.0967  -23.7162   11.5141 C.ar    1  UNL1        0.0016
     10 C          15.6627  -23.1528   12.7128 C.ar    1  UNL1        0.0016
     11 C          16.3036  -23.4197   13.8825 C.ar    1  UNL1        0.0206
     12 C          17.4210  -24.2755   13.8886 C.ar    1  UNL1        0.0990
     13 N          18.0591  -24.5456   15.0339 N.ar    1  UNL1       -0.2405
     14 N          21.9609  -27.3526   16.0082 N.pl3   1  UNL1       -0.3434
     15 H          22.5652  -27.9180   15.4749 H       1  UNL1        0.1437
     16 H          22.0943  -27.2694   16.9800 H       1  UNL1        0.1437
     17 C          22.8350  -28.9266   11.2703 C.ar    1  UNL1        0.0757
     18 C          23.2406  -27.6334   11.6131 C.ar    1  UNL1        0.0079
     19 C          22.5200  -26.9100   12.5363 C.ar    1  UNL1        0.0178
     20 C          21.3890  -27.4637   13.1273 C.ar    1  UNL1        0.0665
     21 C          20.9823  -28.7503   12.7887 C.ar    1  UNL1        0.0178
     22 C          21.6981  -29.4800   11.8666 C.ar    1  UNL1        0.0079
     23 C          23.6080  -29.7075   10.2865 C.2     1  UNL1        0.3412
     24 O          24.3296  -30.6108   10.6598 O.2     1  UNL1       -0.2449
     25 O          23.5139  -29.4189    8.9736 O.3     1  UNL1       -0.4454
     26 C          24.7333  -29.0102    8.2995 C.3     1  UNL1        0.2088
     27 C          24.5839  -27.5703    7.8040 C.3     1  UNL1        0.0475
     28 C          26.3360  -27.2948    9.5638 C.3     1  UNL1        0.0001
     29 C          25.1750  -26.6110    8.8390 C.3     1  UNL1        0.0038
     30 C          19.9902  -25.5654   17.4380 C.2     1  UNL1        0.3456
     31 O          20.2591  -26.4317   18.2494 O.2     1  UNL1       -0.2447
     32 O          19.6597  -24.3265   17.8583 O.3     1  UNL1       -0.4427
     33 C          20.6816  -23.3292   17.8050 C.3     1  UNL1        0.2380
     34 C          20.3526  -22.3203   16.7028 C.3     1  UNL1        0.1589
     35 C          20.0035  -20.9559   17.3285 C.3     1  UNL1        0.0360
     36 C          21.0355  -19.9805   16.7118 C.3     1  UNL1        0.0347
     37 C          21.4823  -20.7430   15.4384 C.3     1  UNL1        0.1423
     38 O          21.5014  -22.1232   15.8617 O.3     1  UNL1       -0.3524
@<TRIPOS>BOND
     1    28    29    1
     2    29    27    1
     3    27    26    1
     4    26    25    1
     5    25    23    1
     6    23    24    2
     7    23    17    1
     8    17    22   ar
     9    17    18   ar
    10    18    19   ar
    11    19    20   ar
    12    20    21   ar
    13    20     1    1
    14    21    22   ar
    15     1     5   ar
    16     1     2   ar
    17     2     3   ar
    18     2    14    1
    19     3     4   ar
    20     3    30    1
    21     4    13   ar
    22     4     5   ar
    23     5     6   ar
    24     6     7   ar
    25     7    12   ar
    26     7     8   ar
    27     8     9   ar
    28     9    10   ar
    29    10    11   ar
    30    11    12   ar
    31    12    13   ar
    32    30    31    2
    33    30    32    1
    34    32    33    1
    35    33    34    1
    36    34    38    1
    37    34    35    1
    38    35    36    1
    39    36    37    1
    40    37    38    1
    41    14    15    1
    42    14    16    1
#	Name:			ZINC08947688
#	Creating user name:	trannguyen
#	Creation time:		Wed Dec  7 14:36:19 2022


#	Modifying user name:	trannguyen
#	Modification time:	Wed Dec  7 14:36:19 2022

@<TRIPOS>MOLECULE
ZINC08947688
 30 32 0 0 0
SMALL
GASTEIGER

@<TRIPOS>ATOM
      1 C          19.0926  -24.7532   13.6590 C.ar    1  UNL1        0.1351
      2 C          20.0747  -24.4202   14.6137 C.ar    1  UNL1        0.0878
      3 C          21.4427  -24.0777   14.5494 C.ar    1  UNL1        0.1260
      4 N          21.8704  -23.8576   15.7600 N.ar    1  UNL1       -0.1662
      5 N          20.8249  -24.0498   16.6719 N.ar    1  UNL1       -0.2321
      6 C          19.7068  -24.3953   15.9727 C.ar    1  UNL1        0.1658
      7 N          18.4499  -24.6853   16.3051 N.ar    1  UNL1       -0.2022
      8 C          17.5610  -24.9932   15.3754 C.ar    1  UNL1        0.1925
      9 N          17.8655  -25.0285   14.0824 N.ar    1  UNL1       -0.2063
     10 N          19.4003  -24.7918   12.3134 N.pl3   1  UNL1       -0.3179
     11 H          20.3279  -24.6484   12.0163 H       1  UNL1        0.1482
     12 C          18.3466  -25.0463   11.3279 C.3     1  UNL1        0.0882
     13 C          16.2684  -23.6604   11.2730 C.3     1  UNL1        0.0018
     14 C          17.7436  -23.7163   10.8712 C.3     1  UNL1        0.0212
     15 S          15.9121  -25.3695   15.8694 S.3     1  UNL1       -0.0756
     16 C          16.1143  -27.1045   16.3439 C.3     1  UNL1        0.0652
     17 C          15.4016  -27.3558   17.6743 C.3     1  UNL1        0.0130
     18 C          20.9158  -23.8995   18.1263 C.3     1  UNL1        0.1503
     19 C          20.3546  -22.5359   18.5343 C.3     1  UNL1        0.1159
     20 N          21.1431  -21.4747   17.9031 N.am    1  UNL1       -0.3024
     21 C          20.5232  -20.4177   17.3418 C.2     1  UNL1        0.2225
     22 O          19.3129  -20.3426   17.3638 O.2     1  UNL1       -0.2751
     23 H          22.1257  -21.5336   17.8889 H       1  UNL1        0.1495
     24 C          21.3339  -19.3291   16.6870 C.3     1  UNL1        0.0850
     25 C          20.9549  -19.2305   15.2081 C.3     1  UNL1        0.0091
     26 C          20.8979  -20.6339   14.6014 C.3     1  UNL1        0.0005
     27 C          20.5189  -20.5353   13.1224 C.3     1  UNL1        0.0000
     28 C          21.5667  -19.7018   12.3819 C.3     1  UNL1        0.0000
     29 C          21.6238  -18.2984   12.9885 C.3     1  UNL1        0.0000
     30 C          22.0027  -18.3970   14.4676 C.3     1  UNL1        0.0005
@<TRIPOS>BOND
     1    13    14    1
     2    14    12    1
     3    12    10    1
     4    10     1    1
     5     1     9   ar
     6     1     2   ar
     7     2     6   ar
     8     2     3   ar
     9     3     4   ar
    10     4     5   ar
    11     5     6   ar
    12     5    18    1
    13     6     7   ar
    14     7     8   ar
    15     8     9   ar
    16     8    15    1
    17    15    16    1
    18    16    17    1
    19    18    19    1
    20    19    20    1
    21    20    21   am
    22    21    22    2
    23    21    24    1
    24    24    25    1
    25    25    30    1
    26    25    26    1
    27    26    27    1
    28    27    28    1
    29    28    29    1
    30    29    30    1
    31    10    11    1
    32    20    23    1
#	Name:			ZINC09135243
#	Creating user name:	trannguyen
#	Creation time:		Wed Dec  7 14:36:19 2022


#	Modifying user name:	trannguyen
#	Modification time:	Wed Dec  7 14:36:19 2022

@<TRIPOS>MOLECULE
ZINC09135243
 38 41 0 0 0
SMALL
GASTEIGER

@<TRIPOS>ATOM
      1 C          18.9030  -25.8369   17.2550 C.2     1  UNL1        0.2504
      2 O          19.4555  -26.9204   17.2817 O.2     1  UNL1       -0.2700
      3 N          17.6387  -25.7140   17.7052 N.am    1  UNL1       -0.3007
      4 H          17.1915  -24.8371   17.6836 H       1  UNL1        0.1497
      5 N          21.1887  -23.7449   15.1985 N.ar    1  UNL1       -0.3257
      6 C          20.5219  -24.7926   15.7004 C.ar    1  UNL1        0.0836
      7 C          19.6150  -24.6610   16.7313 C.ar    1  UNL1        0.1094
      8 C          19.3717  -23.3252   17.2990 C.ar    1  UNL1        0.2029
      9 O          18.5808  -23.1576   18.2112 O.2     1  UNL1       -0.2863
     10 C          20.1235  -22.1994   16.7189 C.ar    1  UNL1        0.0581
     11 C          21.0223  -22.4587   15.6686 C.ar    1  UNL1        0.0662
     12 C          21.7390  -21.4064   15.1100 C.ar    1  UNL1        0.0574
     13 C          21.5653  -20.1190   15.5846 C.ar    1  UNL1        0.1779
     14 C          20.6694  -19.8641   16.6292 C.ar    1  UNL1        0.1766
     15 C          19.9521  -20.8975   17.1938 C.ar    1  UNL1        0.0448
     16 O          20.6882  -18.5259   16.9009 O.3     1  UNL1       -0.4346
     17 C          21.2907  -17.9087   15.7483 C.3     1  UNL1        0.4294
     18 O          22.1355  -18.9385   15.2066 O.3     1  UNL1       -0.4346
     19 C          21.9926  -25.4125   13.6002 C.3     1  UNL1        0.0265
     20 C          22.1345  -23.9746   14.1035 C.3     1  UNL1        0.1061
     21 C          16.9297  -26.8851   18.2269 C.3     1  UNL1        0.0897
     22 C          15.6773  -26.4300   18.9789 C.3     1  UNL1        0.0213
     23 C          14.7189  -27.6122   19.1359 C.3     1  UNL1        0.0023
     24 C          14.3219  -28.1340   17.7535 C.3     1  UNL1        0.0096
     25 C          13.0223  -27.4608   17.3082 C.3     1  UNL1        0.0850
     26 C          13.2857  -26.6185   16.0866 C.2     1  UNL1        0.2225
     27 O          12.3982  -25.9396   15.6151 O.2     1  UNL1       -0.2751
     28 N          14.5077  -26.6196   15.5180 N.am    1  UNL1       -0.3043
     29 H          15.2282  -27.1707   15.9007 H       1  UNL1        0.1494
     30 C          14.7638  -25.8007   14.3306 C.3     1  UNL1        0.0911
     31 C          15.8482  -24.7687   14.6469 C.3     1  UNL1        0.0427
     32 C          15.6559  -23.5381   13.7583 C.3     1  UNL1        0.0952
     33 N          16.8266  -23.3726   12.8934 N.am    1  UNL1       -0.2795
     34 C          18.0930  -22.7665   13.3210 C.3     1  UNL1        0.0939
     35 C          19.1334  -23.1995   12.2615 C.3     1  UNL1        0.0311
     36 C          18.2384  -23.4389   11.0235 C.3     1  UNL1        0.0870
     37 C          16.8770  -23.7511   11.6046 C.2     1  UNL1        0.2257
     38 O          15.9638  -24.2673   10.9960 O.2     1  UNL1       -0.2749
@<TRIPOS>BOND
     1    19    20    1
     2    20     5    1
     3     5    11   ar
     4     5     6   ar
     5     6     7   ar
     6     7     8   ar
     7     7     1    1
     8     8     9    2
     9     8    10   ar
    10    10    15   ar
    11    10    11   ar
    12    11    12   ar
    13    12    13   ar
    14    13    18    1
    15    13    14   ar
    16    14    15   ar
    17    14    16    1
    18    16    17    1
    19    17    18    1
    20     1     2    2
    21     1     3   am
    22     3    21    1
    23    21    22    1
    24    22    23    1
    25    23    24    1
    26    24    25    1
    27    25    26    1
    28    26    27    2
    29    26    28   am
    30    28    30    1
    31    30    31    1
    32    31    32    1
    33    32    33    1
    34    33    37   am
    35    33    34    1
    36    34    35    1
    37    35    36    1
    38    36    37    1
    39    37    38    2
    40     3     4    1
    41    28    29    1
#	Name:			ZINC09253878
#	Creating user name:	trannguyen
#	Creation time:		Wed Dec  7 14:36:19 2022


#	Modifying user name:	trannguyen
#	Modification time:	Wed Dec  7 14:36:19 2022

@<TRIPOS>MOLECULE
ZINC09253878
 34 35 0 0 0
SMALL
GASTEIGER

@<TRIPOS>ATOM
      1 C          21.2164  -21.9312   15.2128 C.ar    1  UNL1        0.1385
      2 C          21.6772  -20.6483   14.9918 C.ar    1  UNL1        0.0453
      3 C          21.2956  -19.6201   15.8340 C.ar    1  UNL1        0.1443
      4 C          20.4474  -19.8712   16.8975 C.ar    1  UNL1        0.0255
      5 C          19.9786  -21.1502   17.1216 C.ar    1  UNL1        0.0191
      6 C          20.3600  -22.1864   16.2771 C.ar    1  UNL1        0.0837
      7 S          21.7092  -23.2420   14.1433 S.O2    1  UNL1        0.0646
      8 O          22.6133  -22.6801   13.2021 O.2     1  UNL1       -0.1527
      9 O          22.0612  -24.3367   14.9781 O.2     1  UNL1       -0.1527
     10 N          20.3682  -23.7088   13.2910 N.3     1  UNL1       -0.1555
     11 C          19.0167  -25.3882   12.1359 C.3     1  UNL1        0.0206
     12 C          19.9188  -25.1024   13.3381 C.3     1  UNL1        0.0958
     13 C          19.6314  -22.7281   12.4899 C.3     1  UNL1        0.0958
     14 C          18.3172  -22.3802   13.1918 C.3     1  UNL1        0.0206
     15 N          21.7966  -18.2473   15.5974 N.pl3   1  UNL1        0.0577
     16 O          22.1976  -17.9272   14.4928 O.2     1  UNL1       -0.1261
     17 O          21.8077  -17.4379   16.5076 O.2     1  UNL1       -0.1261
     18 N          19.8886  -23.4805   16.5007 N.pl3   1  UNL1       -0.2350
     19 H          20.4978  -24.1740   16.8430 H       1  UNL1        0.1745
     20 N          18.5483  -23.7929   16.2382 N.2     1  UNL1       -0.1857
     21 C          18.1207  -25.0076   16.4030 C.2     1  UNL1        0.0765
     22 C          19.0659  -26.0815   16.8767 C.3     1  UNL1        0.0537
     23 C          16.7101  -25.3364   16.1267 C.ar    1  UNL1        0.0151
     24 C          15.9799  -24.5786   15.2079 C.ar    1  UNL1        0.0026
     25 C          14.6625  -24.8956   14.9498 C.ar    1  UNL1        0.0199
     26 C          14.0605  -25.9538   15.6077 C.ar    1  UNL1        0.1219
     27 C          14.7759  -26.7052   16.5232 C.ar    1  UNL1        0.0199
     28 C          16.0958  -26.4035   16.7867 C.ar    1  UNL1        0.0026
     29 S          12.3749  -26.3467   15.2774 S.O2    1  UNL1        0.0603
     30 O          11.8679  -26.9754   16.4466 O.2     1  UNL1       -0.1530
     31 O          11.7861  -25.1775   14.7249 O.2     1  UNL1       -0.1530
     32 N          12.3645  -27.4924   14.0816 N.3     1  UNL1       -0.1779
     33 C          11.0952  -27.9217   13.4895 C.3     1  UNL1        0.1102
     34 H          12.8057  -28.3264   14.4691 H       1  UNL1        0.1488
@<TRIPOS>BOND
     1    11    12    1
     2    12    10    1
     3    10    13    1
     4    10     7    1
     5    13    14    1
     6     7     8    2
     7     7     9    2
     8     7     1    1
     9     1     6   ar
    10     1     2   ar
    11     2     3   ar
    12     3     4   ar
    13     3    15    1
    14     4     5   ar
    15     5     6   ar
    16     6    18    1
    17    18    20    1
    18    20    21    2
    19    21    22    1
    20    21    23    1
    21    23    28   ar
    22    23    24   ar
    23    24    25   ar
    24    25    26   ar
    25    26    27   ar
    26    26    29    1
    27    27    28   ar
    28    29    30    2
    29    29    31    2
    30    29    32    1
    31    32    33    1
    32    15    16    2
    33    15    17    2
    34    18    19    1
    35    32    34    1
#	Name:			ZINC09269556
#	Creating user name:	trannguyen
#	Creation time:		Wed Dec  7 14:36:20 2022


#	Modifying user name:	trannguyen
#	Modification time:	Wed Dec  7 14:36:20 2022

@<TRIPOS>MOLECULE
ZINC09269556
 37 39 0 0 0
SMALL
GASTEIGER

@<TRIPOS>ATOM
      1 C          19.0454  -26.6144   15.5239 C.2     1  UNL1       -0.0344
      2 S          19.8448  -28.0690   15.1043 S.2     1  UNL1       -0.0617
      3 C          20.3093  -24.6709   15.2497 C.2     1  UNL1        0.2485
      4 O          20.9716  -24.9640   16.2259 O.2     1  UNL1       -0.2698
      5 N          19.3101  -25.4801   14.8457 N.am    1  UNL1       -0.2955
      6 H          18.7737  -25.2428   14.0551 H       1  UNL1        0.1538
      7 C          21.1431  -21.0982   13.1123 C.ar    1  UNL1        0.1386
      8 C          22.1684  -21.7676   13.7702 C.ar    1  UNL1        0.0370
      9 C          21.9023  -22.9264   14.4647 C.ar    1  UNL1        0.0076
     10 C          20.5989  -23.4294   14.5075 C.ar    1  UNL1        0.0538
     11 C          19.5708  -22.7532   13.8445 C.ar    1  UNL1        0.0076
     12 C          19.8455  -21.5951   13.1523 C.ar    1  UNL1        0.0370
     13 O          21.4096  -19.9564   12.4290 O.3     1  UNL1       -0.4755
     14 C          21.7947  -18.8151   13.1978 C.3     1  UNL1        0.2054
     15 C          20.7688  -18.5783   14.3080 C.3     1  UNL1        0.0473
     16 C          21.4493  -18.7238   15.6706 C.3     1  UNL1        0.0038
     17 C          20.3944  -19.0206   16.7384 C.3     1  UNL1        0.0001
     18 C          20.8180  -21.2578   17.7668 C.3     1  UNL1        0.0000
     19 C          20.0278  -20.5054   16.6943 C.3     1  UNL1        0.0000
     20 N          18.1513  -26.6035   16.5324 N.am    1  UNL1       -0.6271
     21 C          16.7829  -26.5275   16.2530 C.ar    1  UNL1       -0.1235
     22 C          16.2389  -25.3513   15.7534 C.ar    1  UNL1       -0.0232
     23 C          14.8883  -25.2814   15.4732 C.ar    1  UNL1        0.0180
     24 C          14.0759  -26.3771   15.7002 C.ar    1  UNL1        0.1218
     25 C          14.6134  -27.5478   16.2029 C.ar    1  UNL1        0.0180
     26 C          15.9642  -27.6262   16.4798 C.ar    1  UNL1       -0.0232
     27 S          12.3522  -26.2815   15.3476 S.O2    1  UNL1        0.0603
     28 O          11.6799  -26.8984   16.4369 O.2     1  UNL1       -0.1530
     29 O          12.0922  -24.9417   14.9521 O.2     1  UNL1       -0.1530
     30 N          12.0709  -27.2300   14.0194 N.3     1  UNL1       -0.1769
     31 H          12.3792  -28.1722   14.2598 H       1  UNL1        0.1489
     32 C          10.7137  -27.3533   13.4816 C.3     1  UNL1        0.1209
     33 C          10.4627  -28.8020   13.0582 C.3     1  UNL1        0.1327
     34 C           9.8230  -29.5979   14.2173 C.3     1  UNL1        0.0336
     35 C          10.4667  -30.9986   14.1111 C.3     1  UNL1        0.0346
     36 C          11.4190  -30.8832   12.9003 C.3     1  UNL1        0.1422
     37 O          11.7143  -29.4732   12.7962 O.3     1  UNL1       -0.3548
@<TRIPOS>UNITY_ATOM_ATTR
20 1
charge -1
@<TRIPOS>BOND
     1    18    19    1
     2    19    17    1
     3    17    16    1
     4    16    15    1
     5    15    14    1
     6    14    13    1
     7    13     7    1
     8     7    12   ar
     9     7     8   ar
    10     8     9   ar
    11     9    10   ar
    12    10    11   ar
    13    10     3    1
    14    11    12   ar
    15     3     4    2
    16     3     5   am
    17     5     1    1
    18     1     2    2
    19     1    20    1
    20    20    21    1
    21    21    26   ar
    22    21    22   ar
    23    22    23   ar
    24    23    24   ar
    25    24    25   ar
    26    24    27    1
    27    25    26   ar
    28    27    28    2
    29    27    29    2
    30    27    30    1
    31    30    32    1
    32    32    33    1
    33    33    37    1
    34    33    34    1
    35    34    35    1
    36    35    36    1
    37    36    37    1
    38     5     6    1
    39    30    31    1
#	Name:			ZINC09269583
#	Creating user name:	trannguyen
#	Creation time:		Wed Dec  7 14:36:20 2022


#	Modifying user name:	trannguyen
#	Modification time:	Wed Dec  7 14:36:20 2022

@<TRIPOS>MOLECULE
ZINC09269583
 37 39 0 0 0
SMALL
GASTEIGER

@<TRIPOS>ATOM
      1 C          18.5103  -23.6201   13.2797 C.2     1  UNL1       -0.0344
      2 S          18.3459  -24.0007   11.6186 S.2     1  UNL1       -0.0617
      3 C          20.2383  -22.1099   13.7070 C.2     1  UNL1        0.2514
      4 O          21.0551  -22.9634   13.4207 O.2     1  UNL1       -0.2697
      5 N          18.9215  -22.3918   13.6520 N.am    1  UNL1       -0.2955
      6 H          18.2600  -21.7006   13.8839 H       1  UNL1        0.1538
      7 C          20.5441  -20.3474   15.4445 C.ar    1  UNL1        0.1428
      8 C          20.9712  -19.0813   15.8164 C.ar    1  UNL1        0.0370
      9 C          21.5360  -18.2386   14.8801 C.ar    1  UNL1        0.0031
     10 C          21.6806  -18.6485   13.5645 C.ar    1  UNL1        0.0003
     11 C          21.2659  -19.9043   13.1780 C.ar    1  UNL1        0.0076
     12 C          20.6881  -20.7660   14.1144 C.ar    1  UNL1        0.0875
     13 O          19.9899  -21.1770   16.3636 O.3     1  UNL1       -0.4753
     14 C          20.6287  -21.2504   17.6398 C.3     1  UNL1        0.2054
     15 C          20.3327  -22.6078   18.2808 C.3     1  UNL1        0.0473
     16 C          19.4525  -23.4345   17.3413 C.3     1  UNL1        0.0038
     17 C          18.7760  -24.5562   18.1316 C.3     1  UNL1        0.0001
     18 C          16.8478  -24.1938   19.6786 C.3     1  UNL1        0.0000
     19 C          17.2718  -24.2883   18.2116 C.3     1  UNL1        0.0000
     20 N          18.2284  -24.5487   14.2148 N.am    1  UNL1       -0.6271
     21 C          16.9036  -24.9401   14.4349 C.ar    1  UNL1       -0.1235
     22 C          15.8903  -23.9904   14.4470 C.ar    1  UNL1       -0.0232
     23 C          14.5833  -24.3803   14.6642 C.ar    1  UNL1        0.0180
     24 C          14.2831  -25.7144   14.8700 C.ar    1  UNL1        0.1218
     25 C          15.2906  -26.6617   14.8643 C.ar    1  UNL1        0.0180
     26 C          16.5988  -26.2793   14.6416 C.ar    1  UNL1       -0.0232
     27 S          12.6144  -26.2073   15.1473 S.O2    1  UNL1        0.0603
     28 O          12.4318  -27.4324   14.4511 O.2     1  UNL1       -0.1530
     29 O          11.8070  -25.0639   14.9019 O.2     1  UNL1       -0.1530
     30 N          12.4676  -26.5529   16.7601 N.3     1  UNL1       -0.1769
     31 H          11.7284  -25.9515   17.1240 H       1  UNL1        0.1489
     32 C          12.1534  -27.9173   17.1914 C.3     1  UNL1        0.1209
     33 C          11.1005  -27.8719   18.3005 C.3     1  UNL1        0.1327
     34 C          11.6497  -28.5469   19.5724 C.3     1  UNL1        0.0336
     35 C          11.5730  -27.4405   20.6524 C.3     1  UNL1        0.0346
     36 C          10.5196  -26.4741   20.0531 C.3     1  UNL1        0.1422
     37 O          10.7993  -26.5072   18.6371 O.3     1  UNL1       -0.3548
@<TRIPOS>UNITY_ATOM_ATTR
20 1
charge -1
@<TRIPOS>BOND
     1    18    19    1
     2    19    17    1
     3    17    16    1
     4    16    15    1
     5    15    14    1
     6    14    13    1
     7    13     7    1
     8     7    12   ar
     9     7     8   ar
    10     8     9   ar
    11     9    10   ar
    12    10    11   ar
    13    11    12   ar
    14    12     3    1
    15     3     4    2
    16     3     5   am
    17     5     1    1
    18     1     2    2
    19     1    20    1
    20    20    21    1
    21    21    26   ar
    22    21    22   ar
    23    22    23   ar
    24    23    24   ar
    25    24    25   ar
    26    24    27    1
    27    25    26   ar
    28    27    28    2
    29    27    29    2
    30    27    30    1
    31    30    32    1
    32    32    33    1
    33    33    37    1
    34    33    34    1
    35    34    35    1
    36    35    36    1
    37    36    37    1
    38     5     6    1
    39    30    31    1
#	Name:			ZINC09269677
#	Creating user name:	trannguyen
#	Creation time:		Wed Dec  7 14:36:19 2022


#	Modifying user name:	trannguyen
#	Modification time:	Wed Dec  7 14:36:19 2022

@<TRIPOS>MOLECULE
ZINC09269677
 35 37 0 0 0
SMALL
GASTEIGER

@<TRIPOS>ATOM
      1 N          15.8551  -26.3098   17.7747 N.am    1  UNL1       -0.6271
      2 C          17.0752  -25.6293   17.8453 C.ar    1  UNL1       -0.1235
      3 C          17.1063  -24.2944   18.2270 C.ar    1  UNL1       -0.0232
      4 C          18.3127  -23.6255   18.2962 C.ar    1  UNL1        0.0180
      5 C          19.4887  -24.2835   17.9860 C.ar    1  UNL1        0.1218
      6 C          19.4605  -25.6112   17.6005 C.ar    1  UNL1        0.0180
      7 C          18.2580  -26.2873   17.5343 C.ar    1  UNL1       -0.0232
      8 S          21.0255  -23.4263   18.0750 S.O2    1  UNL1        0.0603
      9 O          21.9532  -24.3175   18.6784 O.2     1  UNL1       -0.1530
     10 O          20.7433  -22.1415   18.6126 O.2     1  UNL1       -0.1530
     11 N          21.5426  -23.1857   16.5204 N.3     1  UNL1       -0.1769
     12 H          21.6118  -24.1066   16.0872 H       1  UNL1        0.1489
     13 C          20.7593  -22.3476   15.6091 C.3     1  UNL1        0.1209
     14 C          21.6661  -21.2831   14.9886 C.3     1  UNL1        0.1327
     15 C          20.9114  -20.5393   13.8697 C.3     1  UNL1        0.0336
     16 C          20.9401  -19.0565   14.3136 C.3     1  UNL1        0.0346
     17 C          22.1327  -19.0368   15.3034 C.3     1  UNL1        0.1422
     18 O          22.0296  -20.3079   15.9802 O.3     1  UNL1       -0.3548
     19 C          15.2878  -26.5534   16.5767 C.2     1  UNL1       -0.0344
     20 S          13.6784  -27.1313   16.4933 S.2     1  UNL1       -0.0617
     21 C          15.8435  -25.1844   14.7694 C.2     1  UNL1        0.2486
     22 O          15.0830  -24.3310   15.1819 O.2     1  UNL1       -0.2698
     23 N          15.9874  -26.3421   15.4442 N.am    1  UNL1       -0.2955
     24 H          16.6035  -27.0334   15.1100 H       1  UNL1        0.1538
     25 C          18.5996  -25.2765   12.2148 C.ar    1  UNL1        0.1385
     26 C          18.0448  -24.5142   11.1954 C.ar    1  UNL1        0.0369
     27 C          16.7805  -23.9736   11.3391 C.ar    1  UNL1        0.0033
     28 C          16.0590  -24.1926   12.4949 C.ar    1  UNL1        0.0047
     29 C          16.6106  -24.9528   13.5276 C.ar    1  UNL1        0.0566
     30 C          17.8870  -25.4978   13.3809 C.ar    1  UNL1        0.0414
     31 O          19.8431  -25.8051   12.0678 O.3     1  UNL1       -0.4792
     32 C          20.4786  -26.3058   13.2456 C.3     1  UNL1        0.1660
     33 C          21.7858  -25.5465   13.4818 C.3     1  UNL1        0.0472
     34 C          19.9931  -28.6007   14.1060 C.3     1  UNL1        0.0038
     35 C          20.7790  -27.7956   13.0691 C.3     1  UNL1        0.0435
@<TRIPOS>UNITY_ATOM_ATTR
1 1
charge -1
@<TRIPOS>BOND
     1    34    35    1
     2    35    32    1
     3    32    33    1
     4    32    31    1
     5    31    25    1
     6    25    30   ar
     7    25    26   ar
     8    26    27   ar
     9    27    28   ar
    10    28    29   ar
    11    29    30   ar
    12    29    21    1
    13    21    22    2
    14    21    23   am
    15    23    19    1
    16    19    20    2
    17    19     1    1
    18     1     2    1
    19     2     7   ar
    20     2     3   ar
    21     3     4   ar
    22     4     5   ar
    23     5     6   ar
    24     5     8    1
    25     6     7   ar
    26     8     9    2
    27     8    10    2
    28     8    11    1
    29    11    13    1
    30    13    14    1
    31    14    18    1
    32    14    15    1
    33    15    16    1
    34    16    17    1
    35    17    18    1
    36    23    24    1
    37    11    12    1
#	Name:			ZINC09273759
#	Creating user name:	trannguyen
#	Creation time:		Wed Dec  7 14:36:19 2022


#	Modifying user name:	trannguyen
#	Modification time:	Wed Dec  7 14:36:19 2022

@<TRIPOS>MOLECULE
ZINC09273759
 40 42 0 0 0
SMALL
GASTEIGER

@<TRIPOS>ATOM
      1 C          18.2347  -25.4530   14.1917 C.2     1  UNL1       -0.0895
      2 C          16.9055  -25.4046   14.5717 C.2     1  UNL1        0.0281
      3 C          16.1435  -26.4566   15.3439 C.3     1  UNL1        0.1231
      4 N          14.7769  -25.9513   15.5042 N.am    1  UNL1       -0.2673
      5 C          14.6835  -24.7508   14.9080 C.2     1  UNL1        0.2883
      6 O          13.6771  -24.0733   14.8615 O.2     1  UNL1       -0.2664
      7 C          15.9936  -24.3734   14.3128 C.2     1  UNL1        0.2454
      8 O          16.2322  -23.3450   13.7048 O.2     1  UNL1       -0.2820
      9 O          18.9914  -26.5225   14.5173 O.co2   1  UNL1       -0.8729
     10 C          19.9103  -23.0367   15.4150 C.3     1  UNL1        0.0328
     11 C          19.5692  -23.2622   13.9645 C.ar    1  UNL1        0.0000
     12 C          18.8232  -24.3401   13.4337 C.ar    1  UNL1       -0.0065
     13 C          18.7530  -24.1483   12.0625 C.ar    1  UNL1        0.0326
     14 N          19.4094  -23.0174   11.7599 N.ar    1  UNL1       -0.3516
     15 C          19.9210  -22.4654   12.9152 C.ar    1  UNL1        0.1290
     16 C          18.0525  -25.0514   11.0802 C.3     1  UNL1        0.0497
     17 H          19.5099  -22.6414   10.8555 H       1  UNL1        0.1658
     18 C          20.7046  -21.2287   13.0016 C.2     1  UNL1        0.3569
     19 O          21.7237  -21.1078   12.3493 O.2     1  UNL1       -0.2433
     20 O          20.2979  -20.2277   13.8088 O.3     1  UNL1       -0.4403
     21 C          21.2676  -19.1905   14.1125 C.3     1  UNL1        0.2560
     22 C          16.7759  -26.6637   16.6960 C.ar    1  UNL1        0.0062
     23 C          17.0487  -27.9437   17.1406 C.ar    1  UNL1        0.0379
     24 C          17.6358  -28.1382   18.3818 C.ar    1  UNL1        0.1752
     25 C          17.9397  -27.0445   19.1836 C.ar    1  UNL1        0.2060
     26 C          17.6585  -25.7594   18.7353 C.ar    1  UNL1        0.1752
     27 C          17.0762  -25.5732   17.4908 C.ar    1  UNL1        0.0379
     28 O          17.9545  -24.6859   19.5161 O.3     1  UNL1       -0.4683
     29 C          19.1417  -23.9581   19.1952 C.3     1  UNL1        0.2526
     30 O          18.5116  -27.2315   20.4044 O.3     1  UNL1       -0.4654
     31 C          17.6295  -27.4453   21.5081 C.3     1  UNL1        0.2528
     32 O          17.9085  -29.3977   18.8162 O.3     1  UNL1       -0.4683
     33 C          16.8123  -30.3119   18.8848 C.3     1  UNL1        0.2526
     34 C          13.6880  -26.6454   16.1963 C.3     1  UNL1        0.1005
     35 C          13.0452  -27.6592   15.2477 C.3     1  UNL1        0.0824
     36 C          11.7158  -27.1039   14.7324 C.3     1  UNL1        0.1076
     37 C          12.5989  -28.4854   12.9508 C.3     1  UNL1        0.1674
     38 C          10.2062  -28.2039   13.1919 C.3     1  UNL1        0.1674
     39 N          11.5229  -27.5480   13.3360 N.4     1  UNL1        0.2850
     40 H          11.5567  -26.7343   12.7219 H       1  UNL1        0.2072
@<TRIPOS>UNITY_ATOM_ATTR
9 1
charge -1
39 1
charge 1
@<TRIPOS>BOND
     1    10    11    1
     2    11    15   ar
     3    11    12   ar
     4    12    13   ar
     5    12     1    1
     6    13    14   ar
     7    13    16    1
     8    14    15   ar
     9    15    18    1
    10    18    19    2
    11    18    20    1
    12    20    21    1
    13     1     2    2
    14     1     9    1
    15     2     7    1
    16     2     3    1
    17     3     4    1
    18     3    22    1
    19     4     5   am
    20     4    34    1
    21     5     6    2
    22     5     7    1
    23     7     8    2
    24    34    35    1
    25    35    36    1
    26    36    39    1
    27    37    39    1
    28    38    39    1
    29    22    27   ar
    30    22    23   ar
    31    23    24   ar
    32    24    25   ar
    33    24    32    1
    34    25    26   ar
    35    25    30    1
    36    26    27   ar
    37    26    28    1
    38    28    29    1
    39    30    31    1
    40    32    33    1
    41    14    17    1
    42    39    40    1
#	Name:			ZINC09354187
#	Creating user name:	trannguyen
#	Creation time:		Wed Dec  7 14:36:19 2022


#	Modifying user name:	trannguyen
#	Modification time:	Wed Dec  7 14:36:19 2022

@<TRIPOS>MOLECULE
ZINC09354187
 41 44 0 0 0
SMALL
GASTEIGER

@<TRIPOS>ATOM
      1 N          20.3377  -23.0369   14.6623 N.am    1  UNL1       -0.2615
      2 C          19.6704  -23.7279   13.5550 C.3     1  UNL1        0.1272
      3 C          20.3206  -25.0871   13.4389 C.2     1  UNL1        0.0771
      4 C          20.0097  -26.0809   12.5308 C.2     1  UNL1        0.1343
      5 O          19.1252  -25.8375   11.5402 O.2     1  UNL1       -0.5057
      6 C          21.3074  -25.1342   14.4345 C.2     1  UNL1        0.2495
      7 O          22.0535  -26.0707   14.6571 O.2     1  UNL1       -0.2819
      8 C          21.2852  -23.8418   15.1716 C.2     1  UNL1        0.2886
      9 O          22.0161  -23.5566   16.0981 O.2     1  UNL1       -0.2664
     10 H          18.7223  -24.9947   11.4685 H       1  UNL1        0.2922
     11 C          18.2020  -23.8823   13.8567 C.ar    1  UNL1        0.0003
     12 C          17.2628  -23.2757   13.0433 C.ar    1  UNL1        0.0008
     13 C          15.9160  -23.4203   13.3145 C.ar    1  UNL1        0.0364
     14 C          15.5065  -24.1656   14.4106 C.ar    1  UNL1        0.1337
     15 C          16.4510  -24.7686   15.2285 C.ar    1  UNL1        0.0364
     16 C          17.7965  -24.6256   14.9498 C.ar    1  UNL1        0.0008
     17 O          14.1823  -24.3052   14.6825 O.3     1  UNL1       -0.5055
     18 H          13.5449  -23.8976   14.1296 H       1  UNL1        0.2922
     19 C          20.6424  -27.4040   12.6434 C.ar    1  UNL1        0.0298
     20 C          21.7585  -27.7183   11.8582 C.ar    1  UNL1        0.0058
     21 C          22.3498  -28.9555   11.9710 C.ar    1  UNL1        0.0370
     22 C          21.8338  -29.8975   12.8549 C.ar    1  UNL1        0.1387
     23 C          20.7257  -29.5905   13.6369 C.ar    1  UNL1        0.0328
     24 C          20.1304  -28.3538   13.5356 C.ar    1  UNL1       -0.0159
     25 C          18.9292  -28.0225   14.3832 C.3     1  UNL1        0.0312
     26 O          22.4171  -31.1183   12.9585 O.3     1  UNL1       -0.4707
     27 C          21.7132  -32.2240   12.3893 C.3     1  UNL1        0.2320
     28 C          22.5835  -32.8972   11.3596 C.ar    1  UNL1        0.0212
     29 C          23.5545  -32.1721   10.6946 C.ar    1  UNL1       -0.0007
     30 C          24.3525  -32.7895    9.7496 C.ar    1  UNL1       -0.0002
     31 C          24.1794  -34.1321    9.4697 C.ar    1  UNL1       -0.0000
     32 C          23.2088  -34.8574   10.1350 C.ar    1  UNL1       -0.0002
     33 C          22.4104  -34.2398   11.0796 C.ar    1  UNL1       -0.0007
     34 C          20.0256  -21.6853   15.1336 C.3     1  UNL1        0.1552
     35 C          21.0942  -20.7114   14.6332 C.3     1  UNL1        0.1272
     36 N          21.7342  -20.0697   15.8009 N.4     1  UNL1        0.2771
     37 H          22.6620  -20.4724   15.9332 H       1  UNL1        0.2067
     38 C          21.7793  -18.3480   14.0637 C.3     1  UNL1        0.0670
     39 C          21.8705  -18.6166   15.5671 C.3     1  UNL1        0.1056
     40 C          20.9277  -20.3125   17.0156 C.3     1  UNL1        0.1056
     41 C          19.9451  -19.1530   17.1913 C.3     1  UNL1        0.0670
@<TRIPOS>UNITY_ATOM_ATTR
36 1
charge 1
@<TRIPOS>BOND
     1    38    39    1
     2    39    36    1
     3    40    41    1
     4    40    36    1
     5    35    34    1
     6    35    36    1
     7    34     1    1
     8     1     8   am
     9     1     2    1
    10     2     3    1
    11     2    11    1
    12     3     4    2
    13     3     6    1
    14     4    19    1
    15     4     5    1
    16    19    24   ar
    17    19    20   ar
    18    20    21   ar
    19    21    22   ar
    20    22    23   ar
    21    22    26    1
    22    23    24   ar
    23    24    25    1
    24    26    27    1
    25    27    28    1
    26    28    33   ar
    27    28    29   ar
    28    29    30   ar
    29    30    31   ar
    30    31    32   ar
    31    32    33   ar
    32     6     7    2
    33     6     8    1
    34     8     9    2
    35    11    16   ar
    36    11    12   ar
    37    12    13   ar
    38    13    14   ar
    39    14    15   ar
    40    14    17    1
    41    15    16   ar
    42     5    10    1
    43    17    18    1
    44    36    37    1
#	Name:			ZINC09374527
#	Creating user name:	trannguyen
#	Creation time:		Wed Dec  7 14:36:19 2022


#	Modifying user name:	trannguyen
#	Modification time:	Wed Dec  7 14:36:19 2022

@<TRIPOS>MOLECULE
ZINC09374527
 36 38 0 0 0
SMALL
GASTEIGER

@<TRIPOS>ATOM
      1 C          17.0985  -24.6643   14.8919 C.2     1  UNL1        0.1346
      2 C          17.8506  -24.4346   16.0277 C.2     1  UNL1        0.0772
      3 C          19.1655  -23.6946   16.1115 C.3     1  UNL1        0.1300
      4 N          19.5685  -23.7134   17.5207 N.am    1  UNL1       -0.2647
      5 C          18.6389  -24.3732   18.2318 C.2     1  UNL1        0.2885
      6 O          18.6836  -24.5610   19.4305 O.2     1  UNL1       -0.2664
      7 C          17.5473  -24.8409   17.3355 C.2     1  UNL1        0.2495
      8 O          16.5610  -25.4679   17.6782 O.2     1  UNL1       -0.2819
      9 O          17.4451  -24.0829   13.7236 O.2     1  UNL1       -0.5057
     10 H          16.9350  -24.2387   12.9532 H       1  UNL1        0.2922
     11 C          13.6999  -27.1971   15.0754 C.ar    1  UNL1        0.1386
     12 C          14.9709  -27.7501   14.9609 C.ar    1  UNL1        0.0370
     13 C          16.0764  -26.9328   14.9008 C.ar    1  UNL1        0.0061
     14 C          15.9201  -25.5425   14.9552 C.ar    1  UNL1        0.0338
     15 C          14.6387  -24.9910   15.0761 C.ar    1  UNL1        0.0061
     16 C          13.5392  -25.8167   15.1300 C.ar    1  UNL1        0.0370
     17 O          12.6130  -28.0072   15.1348 O.3     1  UNL1       -0.4755
     18 C          10.6684  -27.7230   13.7282 C.3     1  UNL1        0.0512
     19 C          11.3312  -27.3795   15.0637 C.3     1  UNL1        0.2055
     20 C          20.2035  -24.3897   15.2687 C.ar    1  UNL1        0.0343
     21 C          20.3883  -25.7542   15.3870 C.ar    1  UNL1        0.0038
     22 C          21.3393  -26.3943   14.6161 C.ar    1  UNL1        0.0368
     23 C          22.1112  -25.6681   13.7198 C.ar    1  UNL1        0.1417
     24 C          21.9313  -24.2988   13.6028 C.ar    1  UNL1        0.0735
     25 C          20.9728  -23.6594   14.3742 C.ar    1  UNL1        0.1396
     26 O          20.7906  -22.3177   14.2582 O.3     1  UNL1       -0.4716
     27 C          20.1808  -21.8474   13.0545 C.3     1  UNL1        0.2525
     28 O          23.0467  -26.2983   12.9618 O.3     1  UNL1       -0.4713
     29 C          22.6022  -27.3975   12.1640 C.3     1  UNL1        0.2525
     30 C          20.7872  -23.1098   18.0656 C.3     1  UNL1        0.1264
     31 C          20.6160  -21.5912   18.1377 C.3     1  UNL1        0.1637
     32 O          21.4924  -20.9679   17.1968 O.3     1  UNL1       -0.3493
     33 C          21.0056  -19.7263   16.6831 C.3     1  UNL1        0.1739
     34 C          21.8409  -19.3140   15.4693 C.3     1  UNL1        0.1692
     35 O          22.8003  -20.3335   15.1828 O.3     1  UNL1       -0.3794
     36 H          23.3820  -20.4548   15.9494 H       1  UNL1        0.2105
@<TRIPOS>BOND
     1    18    19    1
     2    19    17    1
     3    17    11    1
     4    11    16   ar
     5    11    12   ar
     6    12    13   ar
     7    13    14   ar
     8    14    15   ar
     9    14     1    1
    10    15    16   ar
    11     1     2    2
    12     1     9    1
    13     2     7    1
    14     2     3    1
    15     3     4    1
    16     3    20    1
    17     4     5   am
    18     4    30    1
    19     5     6    2
    20     5     7    1
    21     7     8    2
    22    30    31    1
    23    31    32    1
    24    32    33    1
    25    33    34    1
    26    34    35    1
    27    20    25   ar
    28    20    21   ar
    29    21    22   ar
    30    22    23   ar
    31    23    24   ar
    32    23    28    1
    33    24    25   ar
    34    25    26    1
    35    26    27    1
    36    28    29    1
    37    35    36    1
    38     9    10    1
#	Name:			ZINC09425590
#	Creating user name:	trannguyen
#	Creation time:		Wed Dec  7 14:36:20 2022


#	Modifying user name:	trannguyen
#	Modification time:	Wed Dec  7 14:36:20 2022

@<TRIPOS>MOLECULE
ZINC09425590
 34 36 0 0 0
SMALL
GASTEIGER

@<TRIPOS>ATOM
      1 C          20.0290  -25.8118   18.4121 C.ar    1  UNL1        0.1733
      2 C          20.4163  -24.9110   17.4372 C.ar    1  UNL1        0.0417
      3 C          19.6813  -23.7393   17.2414 C.ar    1  UNL1        0.0247
      4 C          18.5581  -23.4828   18.0316 C.ar    1  UNL1        0.0163
      5 C          18.1743  -24.3889   18.9991 C.ar    1  UNL1        0.0946
      6 C          18.9084  -25.5505   19.1965 C.ar    1  UNL1        0.1828
      7 CL         16.7742  -24.0726   19.9756 Cl      1  UNL1       -0.0790
      8 C          21.8116  -26.8988   19.5509 C.3     1  UNL1        0.2526
      9 O          20.7423  -26.9537   18.6046 O.3     1  UNL1       -0.4683
     10 C          20.0899  -22.7756   16.2029 C.2     1  UNL1        0.1178
     11 N          21.2207  -22.1481   16.3089 N.2     1  UNL1       -0.1764
     12 N          21.6089  -21.2324   15.3222 N.am    1  UNL1       -0.1904
     13 C          21.7345  -19.9257   15.6275 C.2     1  UNL1        0.3165
     14 O          22.0715  -19.1309   14.7711 O.2     1  UNL1       -0.2513
     15 N          21.4867  -19.4999   16.8820 N.am    1  UNL1       -0.3120
     16 H          21.7900  -21.5434   14.4058 H       1  UNL1        0.1788
     17 H          21.2139  -20.1434   17.5753 H       1  UNL1        0.1465
     18 H          21.5785  -18.5454   17.1051 H       1  UNL1        0.1465
     19 O          18.5291  -26.4380   20.1542 O.3     1  UNL1       -0.4675
     20 C          17.2986  -27.1334   19.9437 C.3     1  UNL1        0.2527
     21 C          17.4917  -28.1952   18.8594 C.3     1  UNL1        0.2525
     22 O          16.4473  -28.0824   17.8907 O.3     1  UNL1       -0.4714
     23 C          16.6383  -27.1969   16.8776 C.ar    1  UNL1        0.1387
     24 C          17.7111  -27.3525   16.0118 C.ar    1  UNL1        0.0366
     25 C          17.8996  -26.4547   14.9791 C.ar    1  UNL1       -0.0012
     26 C          17.0271  -25.3944   14.8153 C.ar    1  UNL1       -0.0223
     27 C          15.9605  -25.2339   15.6803 C.ar    1  UNL1       -0.0012
     28 C          15.7641  -26.1326   16.7109 C.ar    1  UNL1        0.0366
     29 C          17.2390  -24.4126   13.6918 C.3     1  UNL1        0.0223
     30 C          16.3007  -24.7539   12.5325 C.3     1  UNL1        0.0044
     31 C          16.5157  -23.7570   11.3920 C.3     1  UNL1        0.0003
     32 C          17.9669  -23.8348   10.9135 C.3     1  UNL1        0.0000
     33 C          18.9052  -23.4936   12.0728 C.3     1  UNL1        0.0003
     34 C          18.6901  -24.4905   13.2134 C.3     1  UNL1        0.0044
@<TRIPOS>BOND
     1     8     9    1
     2     9     1    1
     3     1     6   ar
     4     1     2   ar
     5     2     3   ar
     6     3     4   ar
     7     3    10    1
     8     4     5   ar
     9     5     6   ar
    10     5     7    1
    11     6    19    1
    12    19    20    1
    13    20    21    1
    14    21    22    1
    15    22    23    1
    16    23    28   ar
    17    23    24   ar
    18    24    25   ar
    19    25    26   ar
    20    26    27   ar
    21    26    29    1
    22    27    28   ar
    23    29    34    1
    24    29    30    1
    25    30    31    1
    26    31    32    1
    27    32    33    1
    28    33    34    1
    29    10    11    2
    30    11    12    1
    31    12    13   am
    32    13    14    2
    33    13    15   am
    34    12    16    1
    35    15    17    1
    36    15    18    1
#	Name:			ZINC09461105
#	Creating user name:	trannguyen
#	Creation time:		Wed Dec  7 14:36:19 2022


#	Modifying user name:	trannguyen
#	Modification time:	Wed Dec  7 14:36:19 2022

@<TRIPOS>MOLECULE
ZINC09461105
 40 43 0 0 0
SMALL
GASTEIGER

@<TRIPOS>ATOM
      1 N          21.6090  -28.3104   13.2753 N.am    1  UNL1       -0.2780
      2 C          20.7514  -27.2712   13.3093 C.2     1  UNL1        0.2757
      3 O          20.3275  -26.8007   12.2749 O.2     1  UNL1       -0.2686
      4 H          21.9075  -28.7300   14.1144 H       1  UNL1        0.1551
      5 C          21.7161  -29.9772   11.4463 C.ar    1  UNL1        0.1469
      6 C          22.0724  -28.7902   12.0545 C.ar    1  UNL1        0.0741
      7 C          23.0326  -28.1345   11.1650 C.ar    1  UNL1        0.0339
      8 C          23.7415  -26.9288   11.2380 C.ar    1  UNL1        0.0428
      9 C          24.5914  -26.5735   10.2146 C.ar    1  UNL1        0.1725
     10 C          24.7558  -27.4169    9.1113 C.ar    1  UNL1        0.1738
     11 C          24.0666  -28.6106    9.0319 C.ar    1  UNL1        0.0570
     12 C          23.1986  -28.9831   10.0549 C.ar    1  UNL1        0.0612
     13 N          22.3978  -30.0880   10.2420 N.ar    1  UNL1       -0.3469
     14 H          22.3205  -30.8434    9.6154 H       1  UNL1        0.1662
     15 C          20.8039  -30.9278   11.9667 C.2     1  UNL1        0.3583
     16 O          20.2562  -30.7244   13.0343 O.2     1  UNL1       -0.2432
     17 O          20.5420  -32.0589   11.2785 O.3     1  UNL1       -0.4444
     18 C          18.4743  -33.0371   10.4984 C.3     1  UNL1        0.0513
     19 C          19.4068  -32.8220   11.6923 C.3     1  UNL1        0.2089
     20 O          25.6011  -27.0589    8.1093 O.3     1  UNL1       -0.4683
     21 C          25.0135  -26.4946    6.9353 C.3     1  UNL1        0.2526
     22 O          25.2778  -25.4006   10.2797 O.3     1  UNL1       -0.4684
     23 C          25.0364  -24.5696   11.4169 C.3     1  UNL1        0.2526
     24 C          20.3191  -26.6939   14.6325 C.3     1  UNL1        0.1331
     25 C          21.2521  -27.1951   15.7367 C.3     1  UNL1        0.0711
     26 C          21.7440  -24.7401   14.7639 C.3     1  UNL1        0.1275
     27 C          21.7673  -23.2168   14.6169 C.3     1  UNL1        0.1526
     28 N          20.8581  -22.6181   15.6040 N.pl3   1  UNL1       -0.2975
     29 C          19.4846  -23.1050   15.4140 C.3     1  UNL1        0.1526
     30 C          19.4613  -24.6283   15.5609 C.3     1  UNL1        0.1275
     31 N          20.3623  -25.2185   14.5485 N.4     1  UNL1        0.2809
     32 H          20.0524  -24.9308   13.6203 H       1  UNL1        0.2071
     33 C          20.9070  -21.2234   15.5482 C.ar    1  UNL1        0.0449
     34 C          21.2572  -20.5861   14.3647 C.ar    1  UNL1        0.0256
     35 C          21.3008  -19.2058   14.3120 C.ar    1  UNL1        0.0589
     36 C          21.0048  -18.4594   15.4396 C.ar    1  UNL1        0.0112
     37 C          20.6605  -19.0917   16.6198 C.ar    1  UNL1       -0.0022
     38 C          20.6110  -20.4710   16.6776 C.ar    1  UNL1       -0.0085
     39 C          20.2356  -21.1587   17.9650 C.3     1  UNL1        0.0323
     40 CL         21.7330  -18.4075   12.8323 Cl      1  UNL1       -0.0822
@<TRIPOS>UNITY_ATOM_ATTR
31 1
charge 1
@<TRIPOS>BOND
     1    18    19    1
     2    19    17    1
     3    17    15    1
     4    15    16    2
     5    15     5    1
     6     5    13   ar
     7     5     6   ar
     8     6     7   ar
     9     6     1    1
    10     7    12   ar
    11     7     8   ar
    12     8     9   ar
    13     9    10   ar
    14     9    22    1
    15    10    11   ar
    16    10    20    1
    17    11    12   ar
    18    12    13   ar
    19    20    21    1
    20    22    23    1
    21     1     2   am
    22     2     3    2
    23     2    24    1
    24    24    25    1
    25    24    31    1
    26    26    27    1
    27    26    31    1
    28    27    28    1
    29    28    29    1
    30    28    33    1
    31    29    30    1
    32    30    31    1
    33    33    38   ar
    34    33    34   ar
    35    34    35   ar
    36    35    36   ar
    37    35    40    1
    38    36    37   ar
    39    37    38   ar
    40    38    39    1
    41    13    14    1
    42     1     4    1
    43    31    32    1
#	Name:			ZINC09561969
#	Creating user name:	trannguyen
#	Creation time:		Wed Dec  7 14:36:19 2022


#	Modifying user name:	trannguyen
#	Modification time:	Wed Dec  7 14:36:19 2022

@<TRIPOS>MOLECULE
ZINC09561969
 37 40 0 0 0
SMALL
GASTEIGER

@<TRIPOS>ATOM
      1 C          19.3778  -23.6490   17.6438 C.ar    1  UNL1        0.1265
      2 C          19.2519  -22.3047   17.9425 C.ar    1  UNL1        0.0215
      3 C          19.8958  -21.3574   17.1686 C.ar    1  UNL1        0.0172
      4 C          20.6616  -21.7536   16.0822 C.ar    1  UNL1        0.0615
      5 C          20.7838  -23.1091   15.7776 C.ar    1  UNL1        0.0644
      6 C          20.1391  -24.0528   16.5629 C.ar    1  UNL1        0.0361
      7 N          21.3101  -20.7962   15.2942 N.pl3   1  UNL1       -0.3065
      8 C          21.4884  -19.5397   16.0331 C.3     1  UNL1        0.0908
      9 C          22.3256  -18.5691   15.1969 C.3     1  UNL1        0.0215
     10 C          21.6147  -18.3044   13.8670 C.3     1  UNL1        0.0035
     11 C          21.3978  -19.6342   13.1396 C.3     1  UNL1        0.0215
     12 C          20.5875  -20.5738   14.0352 C.3     1  UNL1        0.0908
     13 S          18.5596  -24.8504   18.6398 S.O2    1  UNL1        0.0736
     14 O          17.3238  -24.2736   19.0387 O.2     1  UNL1       -0.1499
     15 O          19.5181  -25.3217   19.5770 O.2     1  UNL1       -0.1499
     16 N          18.1892  -26.1308   17.6571 N.pl3   1  UNL1       -0.2150
     17 H          18.8692  -26.8159   17.4638 H       1  UNL1        0.1737
     18 C          14.3771  -26.4530   16.0025 C.ar    1  UNL1        0.1388
     19 C          14.7102  -27.1958   17.1254 C.ar    1  UNL1        0.0382
     20 C          15.9730  -27.0896   17.6744 C.ar    1  UNL1        0.0190
     21 C          16.9094  -26.2391   17.1016 C.ar    1  UNL1        0.0650
     22 C          16.5733  -25.4918   15.9804 C.ar    1  UNL1        0.0190
     23 C          15.3119  -25.6037   15.4293 C.ar    1  UNL1        0.0382
     24 C          12.6329  -27.8772   15.2370 C.3     1  UNL1        0.2525
     25 O          13.1331  -26.5578   15.4627 O.3     1  UNL1       -0.4714
     26 N          21.5557  -23.5162   14.6811 N.am    1  UNL1       -0.2947
     27 H          22.4993  -23.2432   14.6147 H       1  UNL1        0.1539
     28 C          21.0062  -24.2814   13.7172 C.2     1  UNL1        0.1389
     29 S          21.0897  -25.9878   13.8273 S.2     1  UNL1       -0.0182
     30 N          20.3910  -23.7030   12.6667 N.am    1  UNL1       -0.2944
     31 H          20.9130  -23.1751   12.0201 H       1  UNL1        0.1539
     32 C          19.0106  -23.8530   12.4952 C.ar    1  UNL1        0.0690
     33 C          18.1190  -23.0554   13.2088 C.ar    1  UNL1        0.0178
     34 C          16.7618  -23.2374   13.0007 C.ar    1  UNL1        0.0220
     35 C          16.3393  -24.2045   12.1073 C.ar    1  UNL1        0.0990
     36 N          17.2090  -24.9472   11.4511 N.ar    1  UNL1       -0.2410
     37 C          18.5090  -24.8030   11.6154 C.ar    1  UNL1        0.1134
@<TRIPOS>BOND
     1    24    25    1
     2    25    18    1
     3    18    23   ar
     4    18    19   ar
     5    19    20   ar
     6    20    21   ar
     7    21    22   ar
     8    21    16    1
     9    22    23   ar
    10    16    13    1
    11    13    14    2
    12    13    15    2
    13    13     1    1
    14     1     6   ar
    15     1     2   ar
    16     2     3   ar
    17     3     4   ar
    18     4     5   ar
    19     4     7    1
    20     5     6   ar
    21     5    26    1
    22    26    28    1
    23    28    29    2
    24    28    30    1
    25    30    32    1
    26    32    37   ar
    27    32    33   ar
    28    33    34   ar
    29    34    35   ar
    30    35    36   ar
    31    36    37   ar
    32     7    12    1
    33     7     8    1
    34     8     9    1
    35     9    10    1
    36    10    11    1
    37    11    12    1
    38    16    17    1
    39    26    27    1
    40    30    31    1
#	Name:			ZINC09572526
#	Creating user name:	trannguyen
#	Creation time:		Wed Dec  7 14:36:19 2022


#	Modifying user name:	trannguyen
#	Modification time:	Wed Dec  7 14:36:19 2022

@<TRIPOS>MOLECULE
ZINC09572526
 38 41 0 0 0
SMALL
GASTEIGER

@<TRIPOS>ATOM
      1 C          16.8910  -24.5324   12.7680 C.ar    1  UNL1        0.0505
      2 C          16.8099  -23.1883   13.1077 C.ar    1  UNL1        0.0160
      3 C          17.9546  -22.4176   13.1534 C.ar    1  UNL1        0.0171
      4 C          19.1870  -22.9863   12.8597 C.ar    1  UNL1        0.0649
      5 C          19.2679  -24.3304   12.5199 C.ar    1  UNL1        0.0171
      6 C          18.1232  -25.1012   12.4742 C.ar    1  UNL1        0.0160
      7 N          15.7296  -25.3144   12.7217 N.pl3   1  UNL1       -0.2825
      8 H          15.2822  -25.4806   11.8607 H       1  UNL1        0.1551
      9 C          13.4896  -26.9485   14.9606 C.ar    1  UNL1        0.1358
     10 C          14.2182  -26.8946   16.1514 C.ar    1  UNL1        0.0492
     11 C          15.4612  -26.2932   16.1364 C.ar    1  UNL1        0.0650
     12 N          15.9237  -25.7885   15.0019 N.ar    1  UNL1       -0.2178
     13 C          15.2110  -25.8537   13.8870 C.ar    1  UNL1        0.2215
     14 N          14.0123  -26.4172   13.8603 N.ar    1  UNL1       -0.1986
     15 C          16.2832  -26.2123   17.3969 C.3     1  UNL1        0.0523
     16 N          12.2384  -27.5420   14.9286 N.pl3   1  UNL1       -0.2931
     17 C          10.7020  -28.1151   13.1139 C.3     1  UNL1        0.0232
     18 C          11.1968  -27.0083   14.0473 C.3     1  UNL1        0.0922
     19 C          11.9567  -28.7036   15.7758 C.3     1  UNL1        0.0922
     20 C          10.8916  -28.3341   16.8102 C.3     1  UNL1        0.0232
     21 N          20.3472  -22.2050   12.9054 N.pl3   1  UNL1       -0.2150
     22 H          20.4938  -21.5015   12.2325 H       1  UNL1        0.1737
     23 S          21.4734  -22.4640   14.0915 S.O2    1  UNL1        0.0736
     24 O          22.1295  -21.2221   14.3068 O.2     1  UNL1       -0.1499
     25 O          20.8110  -23.1665   15.1341 O.2     1  UNL1       -0.1499
     26 C          22.6815  -23.5640   13.4316 C.ar    1  UNL1        0.1254
     27 C          22.5648  -24.9252   13.6440 C.ar    1  UNL1        0.0233
     28 C          23.5073  -25.7902   13.1229 C.ar    1  UNL1        0.0389
     29 C          24.5780  -25.2909   12.3951 C.ar    1  UNL1        0.1454
     30 C          24.6959  -23.9240   12.1881 C.ar    1  UNL1        0.0389
     31 C          23.7476  -23.0638   12.7070 C.ar    1  UNL1        0.0233
     32 O          25.5092  -26.1393   11.8853 O.3     1  UNL1       -0.4535
     33 C          25.1858  -26.8460   10.7706 C.ar    1  UNL1        0.1453
     34 C          25.0308  -26.1947    9.5553 C.ar    1  UNL1        0.0375
     35 C          24.7073  -26.9164    8.4227 C.ar    1  UNL1        0.0031
     36 C          24.5276  -28.2851    8.5015 C.ar    1  UNL1        0.0002
     37 C          24.6758  -28.9357    9.7125 C.ar    1  UNL1        0.0031
     38 C          25.0045  -28.2196   10.8470 C.ar    1  UNL1        0.0375
@<TRIPOS>BOND
     1    17    18    1
     2    18    16    1
     3    16    19    1
     4    16     9    1
     5    19    20    1
     6     9    14   ar
     7     9    10   ar
     8    10    11   ar
     9    11    12   ar
    10    11    15    1
    11    12    13   ar
    12    13    14   ar
    13    13     7    1
    14     7     1    1
    15     1     6   ar
    16     1     2   ar
    17     2     3   ar
    18     3     4   ar
    19     4     5   ar
    20     4    21    1
    21     5     6   ar
    22    21    23    1
    23    23    24    2
    24    23    25    2
    25    23    26    1
    26    26    31   ar
    27    26    27   ar
    28    27    28   ar
    29    28    29   ar
    30    29    30   ar
    31    29    32    1
    32    30    31   ar
    33    32    33    1
    34    33    38   ar
    35    33    34   ar
    36    34    35   ar
    37    35    36   ar
    38    36    37   ar
    39    37    38   ar
    40     7     8    1
    41    21    22    1
#	Name:			ZINC09589880
#	Creating user name:	trannguyen
#	Creation time:		Wed Dec  7 14:36:19 2022


#	Modifying user name:	trannguyen
#	Modification time:	Wed Dec  7 14:36:19 2022

@<TRIPOS>MOLECULE
ZINC09589880
 42 46 0 0 0
SMALL
GASTEIGER

@<TRIPOS>ATOM
      1 C          13.2980  -27.1999   15.2003 C.3     1  UNL1        0.0229
      2 C          13.3318  -27.3610   16.7213 C.3     1  UNL1        0.0024
      3 C          14.7822  -27.3180   17.2067 C.3     1  UNL1        0.0091
      4 C          15.4091  -25.9764   16.8218 C.3     1  UNL1        0.0765
      5 C          15.3753  -25.8153   15.3007 C.3     1  UNL1        0.0091
      6 C          13.9250  -25.8583   14.8154 C.3     1  UNL1        0.0024
      7 C          16.8377  -25.9340   17.2998 C.2     1  UNL1        0.2220
      8 O          17.3785  -26.9488   17.6853 O.2     1  UNL1       -0.2751
      9 N          17.5142  -24.7683   17.2991 N.am    1  UNL1       -0.3040
     10 H          17.0752  -23.9445   16.9863 H       1  UNL1        0.1494
     11 C          18.9030  -24.7271   17.7638 C.3     1  UNL1        0.0941
     12 C          19.2685  -23.2931   18.1519 C.3     1  UNL1        0.0491
     13 C          20.1687  -22.7014   17.0980 C.ar    1  UNL1       -0.0021
     14 C          20.9724  -23.3783   16.2627 C.ar    1  UNL1        0.0681
     15 N          21.6359  -22.5054   15.4440 N.ar    1  UNL1       -0.3523
     16 C          21.2723  -21.2121   15.7459 C.ar    1  UNL1        0.0563
     17 C          20.3374  -21.2781   16.7953 C.ar    1  UNL1        0.0131
     18 C          19.7879  -20.1042   17.3134 C.ar    1  UNL1        0.0012
     19 C          20.1617  -18.8949   16.7979 C.ar    1  UNL1        0.0001
     20 C          21.0839  -18.8244   15.7632 C.ar    1  UNL1        0.0015
     21 C          21.6385  -19.9707   15.2366 C.ar    1  UNL1        0.0170
     22 H          22.2776  -22.7637   14.7435 H       1  UNL1        0.1660
     23 C          11.8476  -27.2428   14.7150 C.3     1  UNL1        0.1135
     24 C          11.6059  -32.8200   12.1209 C.ar    1  UNL1        0.1724
     25 C          12.0274  -31.5115   12.2484 C.ar    1  UNL1        0.0462
     26 C          11.5362  -30.7296   13.2941 C.ar    1  UNL1        0.0752
     27 C          10.6139  -31.2710   14.2083 C.ar    1  UNL1        0.0679
     28 C          10.1948  -32.5826   14.0668 C.ar    1  UNL1        0.0573
     29 C          10.6863  -33.3543   13.0258 C.ar    1  UNL1        0.1736
     30 N          10.1442  -30.4663   15.2389 N.ar    1  UNL1       -0.3063
     31 C          10.5637  -29.1949   15.3595 C.ar    1  UNL1        0.3305
     32 O          10.1292  -28.5230   16.2749 O.2     1  UNL1       -0.2464
     33 N          11.4416  -28.6358   14.5122 N.ar    1  UNL1       -0.2489
     34 C          11.9588  -29.3318   13.4769 C.ar    1  UNL1        0.2657
     35 O          12.7536  -28.8161   12.7143 O.2     1  UNL1       -0.2668
     36 H           9.4983  -30.8304   15.8866 H       1  UNL1        0.1704
     37 O          12.0844  -33.5902   11.1066 O.3     1  UNL1       -0.4724
     38 C          14.4336  -34.1450   11.2254 C.3     1  UNL1        0.0512
     39 C          13.3705  -33.2503   10.5849 C.3     1  UNL1        0.2057
     40 O          10.2751  -34.6411   12.8881 O.3     1  UNL1       -0.4724
     41 C           8.8755  -34.8580   12.6975 C.3     1  UNL1        0.2057
     42 C           8.6394  -35.4866   11.3227 C.3     1  UNL1        0.0512
@<TRIPOS>BOND
     1    38    39    1
     2    39    37    1
     3    37    24    1
     4    24    29   ar
     5    24    25   ar
     6    25    26   ar
     7    26    34   ar
     8    26    27   ar
     9    27    28   ar
    10    27    30   ar
    11    28    29   ar
    12    29    40    1
    13    40    41    1
    14    41    42    1
    15    30    31   ar
    16    31    32    2
    17    31    33   ar
    18    33    34   ar
    19    33    23    1
    20    34    35    2
    21    23     1    1
    22     1     6    1
    23     1     2    1
    24     2     3    1
    25     3     4    1
    26     4     5    1
    27     4     7    1
    28     5     6    1
    29     7     8    2
    30     7     9   am
    31     9    11    1
    32    11    12    1
    33    12    13    1
    34    13    17   ar
    35    13    14   ar
    36    14    15   ar
    37    15    16   ar
    38    16    21   ar
    39    16    17   ar
    40    17    18   ar
    41    18    19   ar
    42    19    20   ar
    43    20    21   ar
    44    30    36    1
    45     9    10    1
    46    15    22    1
#	Name:			ZINC09598434
#	Creating user name:	trannguyen
#	Creation time:		Wed Dec  7 14:36:19 2022


#	Modifying user name:	trannguyen
#	Modification time:	Wed Dec  7 14:36:19 2022

@<TRIPOS>MOLECULE
ZINC09598434
 41 44 0 0 0
SMALL
GASTEIGER

@<TRIPOS>ATOM
      1 N          18.9252  -22.4288   13.6779 N.am    1  UNL1       -0.2839
      2 C          19.8826  -22.8775   12.8423 C.2     1  UNL1        0.2266
      3 O          19.7023  -23.8919   12.2021 O.2     1  UNL1       -0.2748
      4 H          19.0432  -21.5710   14.1464 H       1  UNL1        0.1549
      5 C          17.8616  -26.5662   16.5126 C.3     1  UNL1        0.0312
      6 C          16.6142  -26.1410   15.7816 C.ar    1  UNL1       -0.0176
      7 C          15.4459  -26.8248   15.9370 C.ar    1  UNL1        0.0301
      8 C          14.2994  -26.4149   15.2422 C.ar    1  UNL1        0.1313
      9 C          15.4317  -24.6548   14.2545 C.ar    1  UNL1        0.0825
     10 C          16.6246  -25.0218   14.9241 C.ar    1  UNL1        0.0151
     11 C          17.7923  -24.2699   14.7252 C.ar    1  UNL1        0.0159
     12 C          17.7630  -23.1825   13.8799 C.ar    1  UNL1        0.0504
     13 C          16.5813  -22.8248   13.2219 C.ar    1  UNL1        0.0162
     14 C          15.4381  -23.5395   13.3989 C.ar    1  UNL1        0.0204
     15 N          14.2508  -25.3487   14.4057 N.ar    1  UNL1       -0.2307
     16 N          13.1183  -27.1247   15.4054 N.pl3   1  UNL1       -0.2933
     17 C          13.3875  -28.5027   15.8354 C.3     1  UNL1        0.0921
     18 C          12.0658  -29.2093   16.1449 C.3     1  UNL1        0.0199
     19 C          11.1864  -29.2086   14.8914 C.3     1  UNL1        0.0034
     20 C          10.9612  -27.7640   14.4363 C.3     1  UNL1        0.0199
     21 C          12.3149  -27.0993   14.1764 C.3     1  UNL1        0.0921
     22 C          10.1327  -27.7560   13.1501 C.3     1  UNL1        0.0018
     23 C          12.3455  -30.6514   16.5728 C.3     1  UNL1        0.0018
     24 C          21.1774  -22.1190   12.7032 C.3     1  UNL1        0.0949
     25 C          22.2147  -22.6999   13.6662 C.3     1  UNL1        0.0946
     26 C          21.8596  -22.3145   15.0791 C.2     1  UNL1        0.2230
     27 O          22.0293  -21.1749   15.4577 O.2     1  UNL1       -0.2751
     28 N          21.3534  -23.2363   15.9221 N.am    1  UNL1       -0.3040
     29 H          21.2157  -24.1614   15.6149 H       1  UNL1        0.1494
     30 C          21.0081  -22.8616   17.2957 C.3     1  UNL1        0.0941
     31 C          19.5001  -22.6226   17.3953 C.3     1  UNL1        0.0477
     32 C          18.9008  -23.5972   18.3761 C.ar    1  UNL1       -0.0173
     33 C          17.5462  -23.5556   18.6495 C.ar    1  UNL1       -0.0009
     34 C          16.9908  -24.4512   19.5441 C.ar    1  UNL1        0.0397
     35 C          17.7938  -25.3859   20.1777 C.ar    1  UNL1        0.1724
     36 C          19.1582  -25.4240   19.9068 C.ar    1  UNL1        0.1721
     37 C          19.7077  -24.5272   19.0047 C.ar    1  UNL1        0.0358
     38 O          19.9506  -26.3399   20.5256 O.3     1  UNL1       -0.4684
     39 C          21.0939  -26.8020   19.8036 C.3     1  UNL1        0.2526
     40 O          17.2498  -26.2643   21.0619 O.3     1  UNL1       -0.4684
     41 C          15.8380  -26.4713   20.9853 C.3     1  UNL1        0.2526
@<TRIPOS>BOND
     1     5     6    1
     2     6    10   ar
     3     6     7   ar
     4     7     8   ar
     5     8    16    1
     6     8    15   ar
     7     9    14   ar
     8     9    10   ar
     9     9    15   ar
    10    10    11   ar
    11    11    12   ar
    12    12    13   ar
    13    12     1    1
    14    13    14   ar
    15     1     2   am
    16     2     3    2
    17     2    24    1
    18    24    25    1
    19    25    26    1
    20    26    27    2
    21    26    28   am
    22    28    30    1
    23    30    31    1
    24    31    32    1
    25    32    37   ar
    26    32    33   ar
    27    33    34   ar
    28    34    35   ar
    29    35    36   ar
    30    35    40    1
    31    36    37   ar
    32    36    38    1
    33    38    39    1
    34    40    41    1
    35    16    21    1
    36    16    17    1
    37    17    18    1
    38    18    19    1
    39    18    23    1
    40    19    20    1
    41    20    21    1
    42    20    22    1
    43     1     4    1
    44    28    29    1
#	Name:			ZINC09598435
#	Creating user name:	trannguyen
#	Creation time:		Wed Dec  7 14:36:20 2022


#	Modifying user name:	trannguyen
#	Modification time:	Wed Dec  7 14:36:20 2022

@<TRIPOS>MOLECULE
ZINC09598435
 41 44 0 0 0
SMALL
GASTEIGER

@<TRIPOS>ATOM
      1 N          18.3769  -24.0176   18.2490 N.am    1  UNL1       -0.2839
      2 C          19.5802  -24.0205   17.6419 C.2     1  UNL1        0.2266
      3 O          19.7503  -24.6762   16.6358 O.2     1  UNL1       -0.2748
      4 H          18.2189  -23.4340   19.0260 H       1  UNL1        0.1549
      5 C          15.6560  -24.1109   13.9051 C.3     1  UNL1        0.0312
      6 C          15.1941  -25.2360   14.7950 C.ar    1  UNL1       -0.0176
      7 C          14.2009  -26.0793   14.3964 C.ar    1  UNL1        0.0301
      8 C          13.7870  -27.1190   15.2411 C.ar    1  UNL1        0.1313
      9 C          15.3161  -26.5111   16.8683 C.ar    1  UNL1        0.0825
     10 C          15.7783  -25.4428   16.0614 C.ar    1  UNL1        0.0151
     11 C          16.8049  -24.6103   16.5321 C.ar    1  UNL1        0.0159
     12 C          17.3518  -24.8445   17.7748 C.ar    1  UNL1        0.0504
     13 C          16.8908  -25.9015   18.5670 C.ar    1  UNL1        0.0162
     14 C          15.8963  -26.7204   18.1315 C.ar    1  UNL1        0.0204
     15 N          14.3160  -27.3687   16.4645 N.ar    1  UNL1       -0.2307
     16 N          12.7743  -27.9699   14.8217 N.pl3   1  UNL1       -0.2933
     17 C          11.4692  -27.5232   15.3253 C.3     1  UNL1        0.0921
     18 C          10.3639  -28.3962   14.7268 C.3     1  UNL1        0.0199
     19 C          10.6084  -29.8573   15.1140 C.3     1  UNL1        0.0034
     20 C          11.9937  -30.2830   14.6201 C.3     1  UNL1        0.0199
     21 C          13.0518  -29.3553   15.2217 C.3     1  UNL1        0.0921
     22 C          12.2707  -31.7236   15.0550 C.3     1  UNL1        0.0018
     23 C          10.3765  -28.2627   13.2027 C.3     1  UNL1        0.0018
     24 C          20.7144  -23.2090   18.2132 C.3     1  UNL1        0.0949
     25 C          20.3750  -21.7202   18.1171 C.3     1  UNL1        0.0946
     26 C          20.7696  -21.2017   16.7583 C.2     1  UNL1        0.2230
     27 O          21.7098  -20.4435   16.6482 O.2     1  UNL1       -0.2751
     28 N          20.0777  -21.5805   15.6655 N.am    1  UNL1       -0.3040
     29 H          19.3146  -22.1959   15.7550 H       1  UNL1        0.1494
     30 C          20.4613  -21.0762   14.3445 C.3     1  UNL1        0.0941
     31 C          19.7446  -21.8857   13.2619 C.3     1  UNL1        0.0477
     32 C          20.1655  -23.3299   13.3535 C.ar    1  UNL1       -0.0173
     33 C          19.2386  -24.3333   13.1400 C.ar    1  UNL1       -0.0009
     34 C          19.6209  -25.6596   13.2174 C.ar    1  UNL1        0.0397
     35 C          20.9331  -25.9857   13.5206 C.ar    1  UNL1        0.1724
     36 C          21.8646  -24.9758   13.7411 C.ar    1  UNL1        0.1721
     37 C          21.4761  -23.6485   13.6565 C.ar    1  UNL1        0.0358
     38 O          23.1537  -25.2910   14.0386 O.3     1  UNL1       -0.4684
     39 C          24.1007  -25.2254   12.9703 C.3     1  UNL1        0.2526
     40 O          21.3097  -27.2900   13.6021 O.3     1  UNL1       -0.4684
     41 C          21.5858  -27.9635   12.3725 C.3     1  UNL1        0.2526
@<TRIPOS>BOND
     1     5     6    1
     2     6    10   ar
     3     6     7   ar
     4     7     8   ar
     5     8    16    1
     6     8    15   ar
     7     9    14   ar
     8     9    10   ar
     9     9    15   ar
    10    10    11   ar
    11    11    12   ar
    12    12    13   ar
    13    12     1    1
    14    13    14   ar
    15     1     2   am
    16     2     3    2
    17     2    24    1
    18    24    25    1
    19    25    26    1
    20    26    27    2
    21    26    28   am
    22    28    30    1
    23    30    31    1
    24    31    32    1
    25    32    37   ar
    26    32    33   ar
    27    33    34   ar
    28    34    35   ar
    29    35    36   ar
    30    35    40    1
    31    36    37   ar
    32    36    38    1
    33    38    39    1
    34    40    41    1
    35    16    21    1
    36    16    17    1
    37    17    18    1
    38    18    19    1
    39    18    23    1
    40    19    20    1
    41    20    21    1
    42    20    22    1
    43     1     4    1
    44    28    29    1
#	Name:			ZINC09674205
#	Creating user name:	trannguyen
#	Creation time:		Wed Dec  7 14:36:19 2022


#	Modifying user name:	trannguyen
#	Modification time:	Wed Dec  7 14:36:19 2022

@<TRIPOS>MOLECULE
ZINC09674205
 40 44 0 0 0
SMALL
GASTEIGER

@<TRIPOS>ATOM
      1 C          18.4851  -25.9872   14.7825 C.ar    1  UNL1        0.1884
      2 C          19.3533  -25.9609   15.8542 C.ar    1  UNL1        0.2094
      3 N          20.5906  -26.1641   15.3874 N.ar    1  UNL1       -0.2310
      4 C          20.5511  -26.3264   14.0818 C.ar    1  UNL1        0.2900
      5 N          19.2580  -26.2203   13.6599 N.ar    1  UNL1       -0.2355
      6 H          21.4069  -26.1884   15.9371 H       1  UNL1        0.3119
      7 H          18.9363  -26.2955   12.7325 H       1  UNL1        0.3114
      8 C          14.2731  -25.4551   14.9074 C.ar    1  UNL1        0.1387
      9 C          14.8119  -26.7326   14.9826 C.ar    1  UNL1        0.0370
     10 C          16.1783  -26.9103   14.9422 C.ar    1  UNL1        0.0068
     11 C          17.0216  -25.8023   14.8255 C.ar    1  UNL1        0.0430
     12 C          16.4750  -24.5183   14.7555 C.ar    1  UNL1        0.0068
     13 C          15.1071  -24.3509   14.7918 C.ar    1  UNL1        0.0370
     14 C          12.1272  -26.4597   15.1045 C.3     1  UNL1        0.2525
     15 O          12.9251  -25.2848   14.9475 O.3     1  UNL1       -0.4714
     16 C          21.7191  -26.5767   13.2128 C.ar    1  UNL1        0.0837
     17 C          21.7247  -27.6715   12.3460 C.ar    1  UNL1        0.0107
     18 C          22.8159  -27.9036   11.5354 C.ar    1  UNL1        0.0403
     19 C          23.9098  -27.0515   11.5786 C.ar    1  UNL1        0.1724
     20 C          23.9111  -25.9577   12.4413 C.ar    1  UNL1        0.1726
     21 C          22.8179  -25.7155   13.2521 C.ar    1  UNL1        0.0475
     22 O          24.9851  -25.1244   12.4811 O.3     1  UNL1       -0.4684
     23 C          24.7995  -23.8021   11.9721 C.3     1  UNL1        0.2526
     24 O          24.9830  -27.2847   10.7776 O.3     1  UNL1       -0.4684
     25 C          24.7186  -27.8112    9.4757 C.3     1  UNL1        0.2526
     26 S          18.9116  -25.6988   17.5397 S.3     1  UNL1       -0.0591
     27 C          20.1920  -24.5727   18.1588 C.3     1  UNL1        0.1507
     28 C          20.6302  -23.6518   17.0494 C.2     1  UNL1        0.2376
     29 O          21.7554  -23.7317   16.6037 O.2     1  UNL1       -0.2738
     30 N          19.7717  -22.7393   16.5525 N.am    1  UNL1       -0.2831
     31 H          18.8856  -22.6211   16.9650 H       1  UNL1        0.1549
     32 C          20.1403  -21.9589   15.4489 C.ar    1  UNL1        0.0536
     33 C          19.7478  -22.3343   14.1710 C.ar    1  UNL1        0.0180
     34 C          20.1105  -21.5656   13.0816 C.ar    1  UNL1        0.0415
     35 C          20.8664  -20.4184   13.2610 C.ar    1  UNL1        0.1765
     36 C          21.2613  -20.0391   14.5417 C.ar    1  UNL1        0.1777
     37 C          20.8976  -20.8103   15.6329 C.ar    1  UNL1        0.0548
     38 O          21.9877  -18.8869   14.4511 O.3     1  UNL1       -0.4346
     39 C          21.6883  -18.3444   13.1513 C.3     1  UNL1        0.4294
     40 O          21.3462  -19.5029   12.3678 O.3     1  UNL1       -0.4346
@<TRIPOS>UNITY_ATOM_ATTR
3 1
charge 1
@<TRIPOS>BOND
     1    14    15    1
     2    15     8    1
     3     8    13   ar
     4     8     9   ar
     5     9    10   ar
     6    10    11   ar
     7    11    12   ar
     8    11     1    1
     9    12    13   ar
    10     1     5   ar
    11     1     2   ar
    12     2     3   ar
    13     2    26    1
    14     3     4   ar
    15     4     5   ar
    16     4    16    1
    17    16    21   ar
    18    16    17   ar
    19    17    18   ar
    20    18    19   ar
    21    19    20   ar
    22    19    24    1
    23    20    21   ar
    24    20    22    1
    25    22    23    1
    26    24    25    1
    27    26    27    1
    28    27    28    1
    29    28    29    2
    30    28    30   am
    31    30    32    1
    32    32    37   ar
    33    32    33   ar
    34    33    34   ar
    35    34    35   ar
    36    35    40    1
    37    35    36   ar
    38    36    37   ar
    39    36    38    1
    40    38    39    1
    41    39    40    1
    42     3     6    1
    43     5     7    1
    44    30    31    1
#	Name:			ZINC09680692
#	Creating user name:	trannguyen
#	Creation time:		Wed Dec  7 14:36:19 2022


#	Modifying user name:	trannguyen
#	Modification time:	Wed Dec  7 14:36:19 2022

@<TRIPOS>MOLECULE
ZINC09680692
 40 43 0 0 0
SMALL
GASTEIGER

@<TRIPOS>ATOM
      1 C          20.0915  -21.7833   14.6930 C.ar    1  UNL1        0.0576
      2 C          19.8790  -22.2560   15.9793 C.ar    1  UNL1        0.0389
      3 C          20.3274  -21.5023   17.0730 C.ar    1  UNL1        0.1323
      4 N          20.9482  -20.3526   16.9274 N.ar    1  UNL1       -0.2306
      5 C          21.1953  -19.8217   15.7267 C.ar    1  UNL1        0.0828
      6 C          20.7842  -20.5018   14.5541 C.ar    1  UNL1        0.0222
      7 C          21.0447  -19.9436   13.2978 C.ar    1  UNL1        0.0016
      8 C          21.6936  -18.7473   13.2140 C.ar    1  UNL1        0.0001
      9 C          22.0986  -18.0735   14.3637 C.ar    1  UNL1        0.0015
     10 C          21.8613  -18.5895   15.6009 C.ar    1  UNL1        0.0191
     11 N          18.3919  -22.3587   13.0260 N.am    1  UNL1       -0.3008
     12 C          19.6365  -22.5443   13.5088 C.2     1  UNL1        0.2460
     13 O          20.3850  -23.3367   12.9713 O.2     1  UNL1       -0.2701
     14 H          17.7857  -21.7168   13.4613 H       1  UNL1        0.1497
     15 C          17.9413  -23.1124   11.8533 C.3     1  UNL1        0.0915
     16 C          16.5117  -23.6067   12.0831 C.3     1  UNL1        0.0427
     17 C          16.5375  -25.0944   12.4392 C.3     1  UNL1        0.0925
     18 N          17.0108  -25.2588   13.8159 N.pl3   1  UNL1       -0.3074
     19 C          18.2575  -25.8389   14.0613 C.ar    1  UNL1        0.0478
     20 C          18.9302  -26.5002   13.0416 C.ar    1  UNL1        0.0145
     21 C          20.1649  -27.0685   13.2864 C.ar    1  UNL1        0.0013
     22 C          20.7267  -26.9890   14.5475 C.ar    1  UNL1        0.0001
     23 C          20.0572  -26.3358   15.5661 C.ar    1  UNL1        0.0013
     24 C          18.8246  -25.7608   15.3269 C.ar    1  UNL1        0.0145
     25 C          16.1765  -24.8146   14.9353 C.3     1  UNL1        0.0908
     26 C          14.7493  -25.3317   14.7442 C.3     1  UNL1        0.0214
     27 C          13.8411  -27.5969   14.2086 C.3     1  UNL1        0.0001
     28 C          14.6676  -26.7869   15.2095 C.3     1  UNL1        0.0018
     29 N          20.1079  -21.9865   18.3543 N.pl3   1  UNL1       -0.2956
     30 H          19.8951  -21.3634   19.0863 H       1  UNL1        0.1537
     31 C          20.1892  -23.3634   18.6069 C.ar    1  UNL1        0.0840
     32 C          21.4261  -23.9899   18.6486 C.ar    1  UNL1        0.0208
     33 C          21.5061  -25.3467   18.8984 C.ar    1  UNL1        0.0384
     34 C          20.3507  -26.0851   19.1074 C.ar    1  UNL1        0.1418
     35 C          19.1116  -25.4634   19.0663 C.ar    1  UNL1        0.0750
     36 C          19.0282  -24.1026   18.8219 C.ar    1  UNL1        0.1550
     37 O          17.8145  -23.4901   18.7867 O.3     1  UNL1       -0.4701
     38 C          16.7461  -24.1264   19.4908 C.3     1  UNL1        0.2525
     39 O          20.4328  -27.4201   19.3526 O.3     1  UNL1       -0.4713
     40 C          19.4200  -27.9906   20.1836 C.3     1  UNL1        0.2525
@<TRIPOS>BOND
     1    27    28    1
     2    28    26    1
     3    26    25    1
     4    25    18    1
     5    18    17    1
     6    18    19    1
     7    17    16    1
     8    16    15    1
     9    15    11    1
    10    11    12   am
    11    12    13    2
    12    12     1    1
    13     1     6   ar
    14     1     2   ar
    15     2     3   ar
    16     3     4   ar
    17     3    29    1
    18     4     5   ar
    19     5    10   ar
    20     5     6   ar
    21     6     7   ar
    22     7     8   ar
    23     8     9   ar
    24     9    10   ar
    25    29    31    1
    26    31    36   ar
    27    31    32   ar
    28    32    33   ar
    29    33    34   ar
    30    34    35   ar
    31    34    39    1
    32    35    36   ar
    33    36    37    1
    34    37    38    1
    35    39    40    1
    36    19    24   ar
    37    19    20   ar
    38    20    21   ar
    39    21    22   ar
    40    22    23   ar
    41    23    24   ar
    42    11    14    1
    43    29    30    1
#	Name:			ZINC09696884
#	Creating user name:	trannguyen
#	Creation time:		Wed Dec  7 14:36:19 2022


#	Modifying user name:	trannguyen
#	Modification time:	Wed Dec  7 14:36:19 2022

@<TRIPOS>MOLECULE
ZINC09696884
 30 31 0 0 0
SMALL
GASTEIGER

@<TRIPOS>ATOM
      1 N          15.5144  -25.7541   13.4290 N.am    1  UNL1       -0.2955
      2 C          14.7921  -25.6914   14.5652 C.2     1  UNL1        0.2487
      3 O          15.0961  -24.8993   15.4357 O.2     1  UNL1       -0.2698
      4 H          15.2683  -26.3957   12.7239 H       1  UNL1        0.1538
      5 C          13.6289  -26.5800   14.7497 C.ar    1  UNL1        0.0599
      6 C          13.2828  -27.4962   13.7530 C.ar    1  UNL1        0.0448
      7 C          12.1955  -28.3308   13.9306 C.ar    1  UNL1        0.1756
      8 C          11.4387  -28.2517   15.0967 C.ar    1  UNL1        0.2061
      9 C          11.7781  -27.3359   16.0892 C.ar    1  UNL1        0.1756
     10 C          12.8677  -26.5027   15.9191 C.ar    1  UNL1        0.0448
     11 O          11.0365  -27.2609   17.2268 O.3     1  UNL1       -0.4683
     12 C          11.7441  -27.3140   18.4672 C.3     1  UNL1        0.2526
     13 O          10.3672  -29.0701   15.2667 O.3     1  UNL1       -0.4654
     14 C          10.5983  -30.3105   15.9374 C.3     1  UNL1        0.2528
     15 O          11.8613  -29.2263   12.9632 O.3     1  UNL1       -0.4683
     16 C          12.7366  -30.3410   12.7805 C.3     1  UNL1        0.2526
     17 C          16.5737  -24.9386   13.2581 C.2     1  UNL1       -0.0344
     18 S          16.3433  -23.3487   12.6664 S.2     1  UNL1       -0.0617
     19 N          17.8144  -25.3746   13.5531 N.am    1  UNL1       -0.6271
     20 C          20.5725  -22.7850   15.3058 C.ar    1  UNL1        0.1389
     21 C          19.5295  -23.3014   16.0608 C.ar    1  UNL1        0.0350
     22 C          18.6157  -24.1591   15.4809 C.ar    1  UNL1       -0.0215
     23 C          18.7410  -24.5046   14.1419 C.ar    1  UNL1       -0.1233
     24 C          19.7885  -23.9919   13.3884 C.ar    1  UNL1       -0.0215
     25 C          20.6981  -23.1295   13.9680 C.ar    1  UNL1        0.0350
     26 O          21.4719  -21.9405   15.8774 O.3     1  UNL1       -0.4710
     27 C          21.7591  -20.7281   15.1777 C.3     1  UNL1        0.2278
     28 C          21.9917  -18.2170   15.8507 C.3     1  UNL1        0.0301
     29 C          21.3094  -19.5517   16.0052 C.2     1  UNL1       -0.0007
     30 C          20.3252  -19.6894   16.8587 C.2     1  UNL1       -0.0055
@<TRIPOS>UNITY_ATOM_ATTR
19 1
charge -1
@<TRIPOS>BOND
     1    28    29    1
     2    29    30    2
     3    29    27    1
     4    27    26    1
     5    26    20    1
     6    20    25   ar
     7    20    21   ar
     8    21    22   ar
     9    22    23   ar
    10    23    24   ar
    11    23    19    1
    12    24    25   ar
    13    19    17    1
    14    17    18    2
    15    17     1    1
    16     1     2   am
    17     2     3    2
    18     2     5    1
    19     5    10   ar
    20     5     6   ar
    21     6     7   ar
    22     7     8   ar
    23     7    15    1
    24     8     9   ar
    25     8    13    1
    26     9    10   ar
    27     9    11    1
    28    11    12    1
    29    13    14    1
    30    15    16    1
    31     1     4    1
#	Name:			ZINC09742257
#	Creating user name:	trannguyen
#	Creation time:		Wed Dec  7 14:36:20 2022


#	Modifying user name:	trannguyen
#	Modification time:	Wed Dec  7 14:36:20 2022

@<TRIPOS>MOLECULE
ZINC09742257
 36 37 0 0 0
SMALL
GASTEIGER

@<TRIPOS>ATOM
      1 C          20.5399  -26.6904   12.4598 C.3     1  UNL1        0.0475
      2 C          19.6969  -25.6921   13.2107 C.2     1  UNL1        0.0399
      3 C          20.1605  -25.1314   14.3440 C.2     1  UNL1        0.1369
      4 C          19.3403  -24.1257   15.1009 C.3     1  UNL1        0.2983
      5 N          17.9444  -24.1585   14.6818 N.2     1  UNL1       -0.2020
      6 C          17.5563  -24.7301   13.5854 C.2     1  UNL1        0.3068
      7 N          18.4545  -25.3497   12.7431 N.pl3   1  UNL1       -0.2586
      8 H          17.2691  -23.7288   15.2551 H       1  UNL1        0.4490
      9 H          18.2052  -25.5453   11.8109 H       1  UNL1        0.1579
     10 C          19.8942  -22.7470   14.8494 C.ar    1  UNL1        0.0524
     11 C          20.5237  -22.0595   15.8712 C.ar    1  UNL1        0.0031
     12 C          21.0375  -20.7983   15.6429 C.ar    1  UNL1        0.0061
     13 C          20.9114  -20.2153   14.3876 C.ar    1  UNL1        0.0252
     14 C          20.2733  -20.9068   13.3649 C.ar    1  UNL1        0.0061
     15 C          19.7670  -22.1699   13.5990 C.ar    1  UNL1        0.0031
     16 S          21.5597  -18.6034   14.0935 S.3     1  UNL1       -0.1127
     17 C          22.2120  -18.0916   15.7069 C.3     1  UNL1        0.0742
     18 C          21.4379  -25.4943   14.8285 C.2     1  UNL1        0.3447
     19 O          21.5975  -26.5677   15.3792 O.2     1  UNL1       -0.2450
     20 O          22.4806  -24.6504   14.6804 O.3     1  UNL1       -0.4492
     21 C          22.9370  -24.4107   13.3476 C.3     1  UNL1        0.1694
     22 C          23.3939  -22.9562   13.2188 C.3     1  UNL1        0.0473
     23 C          24.1090  -25.3431   13.0346 C.3     1  UNL1        0.0473
     24 S          15.8468  -24.7084   13.1591 S.3     1  UNL1       -0.0199
     25 C          15.1176  -24.4583   14.7967 C.3     1  UNL1        0.1544
     26 C          14.3307  -25.6822   15.1885 C.2     1  UNL1        0.2409
     27 O          14.8632  -26.5682   15.8220 O.2     1  UNL1       -0.2737
     28 N          13.0348  -25.7922   14.8346 N.am    1  UNL1       -0.2389
     29 C          12.3310  -26.8868   15.1851 C.2     1  UNL1        0.3067
     30 O          12.8649  -27.7749   15.8202 O.2     1  UNL1       -0.2524
     31 N          11.0336  -26.9940   14.8361 N.am    1  UNL1       -0.2846
     32 H          12.6023  -25.0728   14.3201 H       1  UNL1        0.1591
     33 H          10.6011  -26.2746   14.3217 H       1  UNL1        0.1513
     34 C          10.2670  -28.1813   15.2222 C.3     1  UNL1        0.1174
     35 C           9.7949  -28.8989   13.9839 C.2     1  UNL1       -0.0049
     36 C           9.6310  -28.2368   12.8655 C.2     1  UNL1       -0.0032
@<TRIPOS>UNITY_ATOM_ATTR
5 1
charge 1
@<TRIPOS>BOND
     1     1     2    1
     2     2     7    1
     3     2     3    2
     4     3     4    1
     5     3    18    1
     6     4     5    1
     7     4    10    1
     8     5     6    2
     9     6     7    1
    10     6    24    1
    11    24    25    1
    12    25    26    1
    13    26    27    2
    14    26    28   am
    15    28    29   am
    16    29    30    2
    17    29    31   am
    18    31    34    1
    19    34    35    1
    20    35    36    2
    21    10    15   ar
    22    10    11   ar
    23    11    12   ar
    24    12    13   ar
    25    13    14   ar
    26    13    16    1
    27    14    15   ar
    28    16    17    1
    29    18    19    2
    30    18    20    1
    31    20    21    1
    32    21    22    1
    33    21    23    1
    34     5     8    1
    35     7     9    1
    36    28    32    1
    37    31    33    1
#	Name:			ZINC09812701
#	Creating user name:	trannguyen
#	Creation time:		Wed Dec  7 14:36:20 2022


#	Modifying user name:	trannguyen
#	Modification time:	Wed Dec  7 14:36:20 2022

@<TRIPOS>MOLECULE
ZINC09812701
 34 36 0 0 0
SMALL
GASTEIGER

@<TRIPOS>ATOM
      1 C          13.0558  -25.8433   14.9609 C.2     1  UNL1        0.2708
      2 O          12.0690  -25.1388   14.9869 O.2     1  UNL1       -0.2707
      3 N          12.9271  -27.1790   14.8358 N.am    1  UNL1       -0.2807
      4 H          13.7216  -27.7576   14.8926 H       1  UNL1        0.1550
      5 C          11.6699  -27.7410   14.6261 C.ar    1  UNL1        0.0548
      6 C          11.1559  -27.8402   13.3401 C.ar    1  UNL1        0.0148
      7 C           9.9103  -28.3981   13.1344 C.ar    1  UNL1        0.0013
      8 C           9.1643  -28.8626   14.2058 C.ar    1  UNL1        0.0002
      9 C           9.6604  -28.7764   15.4885 C.ar    1  UNL1        0.0058
     10 C          10.9173  -28.2098   15.7130 C.ar    1  UNL1        0.0668
     11 C          11.4525  -28.1107   17.0840 C.2     1  UNL1        0.2471
     12 O          12.3910  -28.8060   17.4220 O.2     1  UNL1       -0.2701
     13 N          10.9014  -27.2493   17.9619 N.am    1  UNL1       -0.3008
     14 H          10.1441  -26.6834   17.6870 H       1  UNL1        0.1497
     15 C          11.4290  -27.1552   19.3254 C.3     1  UNL1        0.0896
     16 C          10.2700  -26.9898   20.3104 C.3     1  UNL1        0.0196
     17 C           9.6676  -25.5916   20.1589 C.3     1  UNL1        0.0017
     18 C           9.1979  -28.0414   20.0179 C.3     1  UNL1        0.0017
     19 C          14.4260  -25.2252   15.0684 C.3     1  UNL1        0.2927
     20 O          15.1871  -25.5234   13.8683 O.3     1  UNL1       -0.4381
     21 C          15.9177  -24.5257   13.3463 C.2     1  UNL1        0.3220
     22 O          15.4530  -23.4131   13.2692 O.2     1  UNL1       -0.2497
     23 C          17.3176  -24.7932   12.8566 C.3     1  UNL1        0.1391
     24 C          20.6976  -22.0272   18.1838 C.3     1  UNL1        0.0308
     25 C          20.0100  -22.5324   16.9416 C.ar    1  UNL1       -0.0229
     26 C          19.2155  -23.6677   17.0102 C.ar    1  UNL1       -0.0044
     27 C          18.5838  -24.1392   15.8930 C.ar    1  UNL1        0.0025
     28 C          18.7361  -23.4709   14.6790 C.ar    1  UNL1        0.0338
     29 C          18.2311  -23.6870   13.3179 C.ar    1  UNL1        0.0295
     30 C          18.7409  -22.6996   12.5692 C.ar    1  UNL1        0.1758
     31 O          19.5130  -21.8978   13.3233 O.2     1  UNL1       -0.4511
     32 C          19.5440  -22.3241   14.6017 C.ar    1  UNL1        0.1408
     33 C          20.1767  -21.8615   15.7490 C.ar    1  UNL1        0.0087
     34 C          21.0432  -20.6299   15.6896 C.3     1  UNL1        0.0339
@<TRIPOS>BOND
     1    24    25    1
     2    25    33   ar
     3    25    26   ar
     4    26    27   ar
     5    27    28   ar
     6    28    32   ar
     7    28    29   ar
     8    29    30   ar
     9    29    23    1
    10    30    31   ar
    11    31    32   ar
    12    32    33   ar
    13    33    34    1
    14    23    21    1
    15    21    22    2
    16    21    20    1
    17    20    19    1
    18    19     1    1
    19     1     2    2
    20     1     3   am
    21     3     5    1
    22     5    10   ar
    23     5     6   ar
    24     6     7   ar
    25     7     8   ar
    26     8     9   ar
    27     9    10   ar
    28    10    11    1
    29    11    12    2
    30    11    13   am
    31    13    15    1
    32    15    16    1
    33    16    17    1
    34    16    18    1
    35     3     4    1
    36    13    14    1
#	Name:			ZINC09852290
#	Creating user name:	trannguyen
#	Creation time:		Wed Dec  7 14:36:20 2022


#	Modifying user name:	trannguyen
#	Modification time:	Wed Dec  7 14:36:20 2022

@<TRIPOS>MOLECULE
ZINC09852290
 33 35 0 0 0
SMALL
GASTEIGER

@<TRIPOS>ATOM
      1 C          17.4466  -26.8409   20.5808 C.3     1  UNL1        0.0842
      2 C          18.2004  -25.7189   19.9146 C.ar    1  UNL1       -0.0113
      3 C          17.5799  -24.4995   19.7082 C.ar    1  UNL1       -0.0033
      4 C          18.2659  -23.4668   19.1033 C.ar    1  UNL1        0.0042
      5 C          19.5854  -23.6574   18.6896 C.ar    1  UNL1        0.0537
      6 C          20.2036  -24.8918   18.8960 C.ar    1  UNL1        0.0042
      7 C          19.5080  -25.9146   19.5068 C.ar    1  UNL1       -0.0033
      8 C          20.3245  -22.5572   18.0352 C.2     1  UNL1        0.2495
      9 O          21.3618  -22.1490   18.5201 O.2     1  UNL1       -0.2698
     10 N          19.8483  -22.0066   16.9009 N.am    1  UNL1       -0.2804
     11 H          19.0459  -22.3813   16.4710 H       1  UNL1        0.1552
     12 C          20.4941  -20.9029   16.3348 C.ar    1  UNL1        0.0505
     13 C          21.4107  -21.0845   15.3073 C.ar    1  UNL1        0.0147
     14 C          22.0428  -19.9919   14.7467 C.ar    1  UNL1        0.0013
     15 C          21.7723  -18.7193   15.2150 C.ar    1  UNL1        0.0001
     16 C          20.8639  -18.5354   16.2414 C.ar    1  UNL1        0.0013
     17 C          20.2242  -19.6232   16.8025 C.ar    1  UNL1        0.0147
     18 S          15.7373  -26.8651   19.9739 S.3     1  UNL1       -0.1258
     19 C          15.7846  -28.0190   18.5750 C.3     1  UNL1        0.1430
     20 N          16.0094  -25.9518   17.2352 N.am    1  UNL1       -0.2831
     21 C          16.2056  -27.2819   17.3297 C.2     1  UNL1        0.2371
     22 O          16.7210  -27.8856   16.4126 O.2     1  UNL1       -0.2738
     23 H          15.6543  -25.4507   18.0047 H       1  UNL1        0.1549
     24 C          16.9013  -23.9591   13.6791 C.ar    1  UNL1        0.1725
     25 C          15.6069  -24.3847   13.9304 C.ar    1  UNL1        0.0413
     26 C          15.3125  -25.0492   15.1057 C.ar    1  UNL1        0.0180
     27 C          16.3108  -25.2823   16.0421 C.ar    1  UNL1        0.0536
     28 C          17.6087  -24.8573   15.7935 C.ar    1  UNL1        0.0547
     29 C          17.9052  -24.1960   14.6133 C.ar    1  UNL1        0.1736
     30 C          16.5699  -23.7986   11.3290 C.3     1  UNL1        0.2526
     31 O          17.1908  -23.3092   12.5193 O.3     1  UNL1       -0.4684
     32 O          19.1759  -23.7783   14.3677 O.3     1  UNL1       -0.4683
     33 C          20.0202  -24.6665   13.6327 C.3     1  UNL1        0.2526
@<TRIPOS>BOND
     1    30    31    1
     2    31    24    1
     3    24    29   ar
     4    24    25   ar
     5    25    26   ar
     6    26    27   ar
     7    27    28   ar
     8    27    20    1
     9    28    29   ar
    10    29    32    1
    11    32    33    1
    12    20    21   am
    13    21    22    2
    14    21    19    1
    15    19    18    1
    16    18     1    1
    17     1     2    1
    18     2     7   ar
    19     2     3   ar
    20     3     4   ar
    21     4     5   ar
    22     5     6   ar
    23     5     8    1
    24     6     7   ar
    25     8     9    2
    26     8    10   am
    27    10    12    1
    28    12    17   ar
    29    12    13   ar
    30    13    14   ar
    31    14    15   ar
    32    15    16   ar
    33    16    17   ar
    34    20    23    1
    35    10    11    1
#	Name:			ZINC09854850
#	Creating user name:	trannguyen
#	Creation time:		Wed Dec  7 14:36:19 2022


#	Modifying user name:	trannguyen
#	Modification time:	Wed Dec  7 14:36:19 2022

@<TRIPOS>MOLECULE
ZINC09854850
 35 37 0 0 0
SMALL
GASTEIGER

@<TRIPOS>ATOM
      1 N          20.9136  -20.5026   16.6403 N.ar    1  UNL1       -0.2070
      2 C          20.6627  -19.2237   16.3036 C.ar    1  UNL1        0.2769
      3 O          20.1773  -18.4578   17.1195 O.2     1  UNL1       -0.2655
      4 C          20.9597  -18.7760   14.9970 C.ar    1  UNL1        0.0640
      5 C          21.5063  -19.6696   14.1246 C.ar    1  UNL1        0.0304
      6 C          21.7325  -20.9928   14.5749 C.ar    1  UNL1        0.1546
      7 N          21.4237  -21.3343   15.8058 N.ar    1  UNL1       -0.1617
      8 C          22.3182  -21.9935   13.6575 C.2     1  UNL1        0.2690
      9 O          21.9961  -22.0054   12.4853 O.2     1  UNL1       -0.2681
     10 N          23.2092  -22.8924   14.1207 N.am    1  UNL1       -0.2791
     11 H          23.5214  -22.8405   15.0530 H       1  UNL1        0.1552
     12 C          23.6908  -23.9000   13.2761 C.ar    1  UNL1        0.0508
     13 C          23.2273  -25.2018   13.4133 C.ar    1  UNL1        0.0178
     14 C          23.6984  -26.1939   12.5762 C.ar    1  UNL1        0.0382
     15 C          24.6429  -25.8924   11.6058 C.ar    1  UNL1        0.1388
     16 C          25.1107  -24.5934   11.4720 C.ar    1  UNL1        0.0382
     17 C          24.6363  -23.5991   12.3046 C.ar    1  UNL1        0.0178
     18 O          25.1101  -26.8709   10.7854 O.3     1  UNL1       -0.4714
     19 C          25.2591  -26.5419    9.4028 C.3     1  UNL1        0.2525
     20 C          20.5955  -20.9580   17.9959 C.3     1  UNL1        0.2154
     21 N          21.3803  -23.3020   18.0855 N.am    1  UNL1       -0.2625
     22 C          20.3462  -22.4441   17.9810 C.2     1  UNL1        0.2525
     23 O          19.2148  -22.8681   17.8751 O.2     1  UNL1       -0.2725
     24 H          22.2987  -22.9578   18.1716 H       1  UNL1        0.1568
     25 C          20.8528  -26.7794   17.2036 C.ar    1  UNL1        0.0787
     26 C          20.6902  -27.2516   18.4637 C.ar    1  UNL1        0.0534
     27 S          20.8813  -25.7473   19.4091 S.2     1  UNL1       -0.0512
     28 C          21.1503  -24.6728   18.0718 C.ar    1  UNL1        0.1652
     29 N          21.0748  -25.4899   17.0394 N.ar    1  UNL1       -0.2277
     30 C          20.7750  -27.7054   16.0172 C.3     1  UNL1        0.1557
     31 C          19.6967  -27.2294   15.0782 C.2     1  UNL1        0.3231
     32 O          18.5335  -27.3841   15.3661 O.2     1  UNL1       -0.2497
     33 O          20.0285  -26.6336   13.9221 O.3     1  UNL1       -0.4482
     34 C          18.9794  -25.1242   12.3248 C.3     1  UNL1        0.0513
     35 C          19.5707  -25.2693   13.7285 C.3     1  UNL1        0.2086
@<TRIPOS>BOND
     1    34    35    1
     2    35    33    1
     3    33    31    1
     4    31    32    2
     5    31    30    1
     6    30    25    1
     7    25    29   ar
     8    25    26   ar
     9    26    27   ar
    10    27    28   ar
    11    28    29   ar
    12    28    21    1
    13    21    22   am
    14    22    23    2
    15    22    20    1
    16    20     1    1
    17     1     7   ar
    18     1     2   ar
    19     2     3    2
    20     2     4   ar
    21     4     5   ar
    22     5     6   ar
    23     6     7   ar
    24     6     8    1
    25     8     9    2
    26     8    10   am
    27    10    12    1
    28    12    17   ar
    29    12    13   ar
    30    13    14   ar
    31    14    15   ar
    32    15    16   ar
    33    15    18    1
    34    16    17   ar
    35    18    19    1
    36    21    24    1
    37    10    11    1
#	Name:			ZINC09874745
#	Creating user name:	trannguyen
#	Creation time:		Wed Dec  7 14:36:19 2022


#	Modifying user name:	trannguyen
#	Modification time:	Wed Dec  7 14:36:19 2022

@<TRIPOS>MOLECULE
ZINC09874745
 37 39 0 0 0
SMALL
GASTEIGER

@<TRIPOS>ATOM
      1 C          15.8775  -25.4146   13.7866 C.ar    1  UNL1        0.1656
      2 N          15.1503  -26.4905   13.5492 N.ar    1  UNL1       -0.2239
      3 C          14.0179  -26.7123   14.1994 C.ar    1  UNL1        0.0897
      4 C          13.5936  -25.8099   15.1347 C.ar    1  UNL1        0.0572
      5 S          14.9117  -24.6043   15.0536 S.2     1  UNL1       -0.0508
      6 C          13.2180  -27.9286   13.9160 C.ar    1  UNL1        0.0183
      7 C          11.9524  -27.8141   13.3424 C.ar    1  UNL1        0.0028
      8 C          11.2129  -28.9468   13.0749 C.ar    1  UNL1        0.0147
      9 C          11.7235  -30.2010   13.3868 C.ar    1  UNL1        0.0503
     10 C          12.9824  -30.3175   13.9633 C.ar    1  UNL1        0.0147
     11 C          13.7280  -29.1881   14.2280 C.ar    1  UNL1        0.0028
     12 N          10.9685  -31.3484   13.1201 N.am    1  UNL1       -0.2839
     13 C          10.2753  -31.9443   14.1106 C.2     1  UNL1        0.2261
     14 O          10.2380  -31.4400   15.2130 O.2     1  UNL1       -0.2748
     15 H          10.9436  -31.7206   12.2090 H       1  UNL1        0.1549
     16 C           9.5467  -33.2371   13.8483 C.3     1  UNL1        0.0854
     17 C          10.4457  -34.1739   13.0388 C.3     1  UNL1        0.0091
     18 C          11.4201  -34.8849   13.9800 C.3     1  UNL1        0.0005
     19 C           9.5831  -35.2121   12.3185 C.3     1  UNL1        0.0005
     20 C          18.2479  -25.3880   13.7683 C.2     1  UNL1        0.2482
     21 O          18.2526  -26.0635   14.7756 O.2     1  UNL1       -0.2729
     22 N          17.0782  -25.0200   13.2090 N.am    1  UNL1       -0.2627
     23 H          17.0744  -24.4716   12.3914 H       1  UNL1        0.1568
     24 C          19.5502  -24.9601   13.1420 C.3     1  UNL1        0.1844
     25 C          20.6450  -21.9420   15.0095 C.3     1  UNL1       -0.0137
     26 C          19.6992  -22.6563   14.0646 C.2     1  UNL1        0.2111
     27 O          18.7247  -22.1909   13.5136 O.2     1  UNL1       -0.2762
     28 N          20.1674  -23.9160   13.9636 N.am    1  UNL1       -0.2377
     29 C          21.2661  -24.0950   14.7058 C.2     1  UNL1        0.1380
     30 O          21.8720  -25.1466   14.7732 O.2     1  UNL1       -0.2967
     31 N          21.6287  -22.9796   15.3647 N.am    1  UNL1       -0.6124
     32 C          19.8987  -21.4590   16.2548 C.3     1  UNL1       -0.0115
     33 C          19.1436  -23.1188   17.9627 C.3     1  UNL1       -0.0000
     34 C          20.3302  -22.2922   17.4633 C.3     1  UNL1       -0.0012
     35 C          21.3297  -20.7708   14.3023 C.3     1  UNL1       -0.0115
     36 C          21.9469  -19.8361   15.3446 C.3     1  UNL1       -0.0012
     37 C          21.6507  -18.3836   14.9660 C.3     1  UNL1       -0.0000
@<TRIPOS>UNITY_ATOM_ATTR
31 1
charge -1
@<TRIPOS>BOND
     1    33    34    1
     2    34    32    1
     3    32    25    1
     4    25    31    1
     5    25    26    1
     6    25    35    1
     7    26    27    2
     8    26    28   am
     9    28    29   am
    10    28    24    1
    11    29    30    2
    12    29    31    1
    13    24    20    1
    14    20    21    2
    15    20    22   am
    16    22     1    1
    17     1     5   ar
    18     1     2   ar
    19     2     3   ar
    20     3     4   ar
    21     3     6    1
    22     4     5   ar
    23     6    11   ar
    24     6     7   ar
    25     7     8   ar
    26     8     9   ar
    27     9    10   ar
    28     9    12    1
    29    10    11   ar
    30    12    13   am
    31    13    14    2
    32    13    16    1
    33    16    17    1
    34    17    18    1
    35    17    19    1
    36    35    36    1
    37    36    37    1
    38    22    23    1
    39    12    15    1
#	Name:			ZINC09897308
#	Creating user name:	trannguyen
#	Creation time:		Wed Dec  7 14:36:20 2022


#	Modifying user name:	trannguyen
#	Modification time:	Wed Dec  7 14:36:20 2022

@<TRIPOS>MOLECULE
ZINC09897308
 33 35 0 0 0
SMALL
GASTEIGER

@<TRIPOS>ATOM
      1 C          13.3611  -26.0052   15.4527 C.2     1  UNL1        0.2496
      2 O          12.2102  -25.7455   15.1526 O.2     1  UNL1       -0.2698
      3 N          13.6221  -26.9957   16.3287 N.am    1  UNL1       -0.2804
      4 H          14.5534  -27.2509   16.5199 H       1  UNL1        0.1552
      5 C          12.5689  -27.6614   16.9664 C.ar    1  UNL1        0.0506
      6 C          12.1362  -28.8926   16.4909 C.ar    1  UNL1        0.0160
      7 C          11.1014  -29.5518   17.1234 C.ar    1  UNL1        0.0159
      8 C          10.4851  -28.9785   18.2281 C.ar    1  UNL1        0.0504
      9 C          10.9139  -27.7449   18.7001 C.ar    1  UNL1        0.0159
     10 C          11.9526  -27.0882   18.0713 C.ar    1  UNL1        0.0160
     11 N           9.4315  -29.6450   18.8666 N.am    1  UNL1       -0.2839
     12 C           8.1932  -29.6125   18.3355 C.2     1  UNL1        0.2256
     13 O           7.9727  -28.9383   17.3516 O.2     1  UNL1       -0.2748
     14 H           9.5954  -30.1372   19.7034 H       1  UNL1        0.1549
     15 C           7.0824  -30.4140   18.9640 C.3     1  UNL1        0.0768
     16 C           7.1375  -30.6319   20.4774 C.3     1  UNL1        0.0096
     17 C           7.4365  -31.7923   19.5260 C.3     1  UNL1        0.0096
     18 C          15.7379  -25.6167   15.0864 C.2     1  UNL1        0.0048
     19 C          14.4603  -25.2423   14.8630 C.2     1  UNL1        0.0580
     20 C          18.9328  -23.4120   13.3671 C.ar    1  UNL1        0.1826
     21 C          18.9734  -23.7536   14.7182 C.ar    1  UNL1        0.1731
     22 C          17.9354  -24.4691   15.2817 C.ar    1  UNL1        0.0401
     23 C          16.8430  -24.8498   14.4935 C.ar    1  UNL1        0.0042
     24 C          16.8086  -24.5032   13.1383 C.ar    1  UNL1        0.0147
     25 C          17.8492  -23.7886   12.5836 C.ar    1  UNL1        0.0946
     26 CL         17.8051  -23.3587   10.9022 Cl      1  UNL1       -0.0790
     27 O          19.9555  -22.7085   12.8152 O.3     1  UNL1       -0.4715
     28 C          19.9257  -21.2886   12.9730 C.3     1  UNL1        0.2056
     29 C          21.3420  -19.2861   13.4491 C.3     1  UNL1        0.0040
     30 C          21.3568  -20.7481   12.9980 C.3     1  UNL1        0.0473
     31 O          20.0359  -23.3824   15.4816 O.3     1  UNL1       -0.4724
     32 C          19.7483  -22.7894   16.7494 C.3     1  UNL1        0.2057
     33 C          20.1882  -21.3240   16.7386 C.3     1  UNL1        0.0512
@<TRIPOS>BOND
     1    29    30    1
     2    30    28    1
     3    28    27    1
     4    27    20    1
     5    20    25   ar
     6    20    21   ar
     7    21    22   ar
     8    21    31    1
     9    22    23   ar
    10    23    24   ar
    11    23    18    1
    12    24    25   ar
    13    25    26    1
    14    18    19    2
    15    19     1    1
    16     1     2    2
    17     1     3   am
    18     3     5    1
    19     5    10   ar
    20     5     6   ar
    21     6     7   ar
    22     7     8   ar
    23     8     9   ar
    24     8    11    1
    25     9    10   ar
    26    11    12   am
    27    12    13    2
    28    12    15    1
    29    15    17    1
    30    15    16    1
    31    16    17    1
    32    31    32    1
    33    32    33    1
    34     3     4    1
    35    11    14    1
#	Name:			ZINC09897457
#	Creating user name:	trannguyen
#	Creation time:		Wed Dec  7 14:36:20 2022


#	Modifying user name:	trannguyen
#	Modification time:	Wed Dec  7 14:36:20 2022

@<TRIPOS>MOLECULE
ZINC09897457
 33 35 0 0 0
SMALL
GASTEIGER

@<TRIPOS>ATOM
      1 C          16.0777  -25.9140   14.8527 C.2     1  UNL1        0.2496
      2 O          16.0347  -25.0875   15.7455 O.2     1  UNL1       -0.2698
      3 N          17.0397  -25.8401   13.9116 N.am    1  UNL1       -0.2804
      4 H          17.1161  -26.5458   13.2294 H       1  UNL1        0.1552
      5 C          17.9299  -24.7601   13.9042 C.ar    1  UNL1        0.0506
      6 C          17.5927  -23.5864   13.2424 C.ar    1  UNL1        0.0160
      7 C          18.4686  -22.5195   13.2395 C.ar    1  UNL1        0.0159
      8 C          19.6918  -22.6236   13.8888 C.ar    1  UNL1        0.0504
      9 C          20.0314  -23.7988   14.5462 C.ar    1  UNL1        0.0159
     10 C          19.1532  -24.8639   14.5539 C.ar    1  UNL1        0.0160
     11 N          20.5830  -21.5429   13.8811 N.am    1  UNL1       -0.2839
     12 C          20.7361  -20.7877   14.9868 C.2     1  UNL1        0.2256
     13 O          20.0424  -20.9909   15.9608 O.2     1  UNL1       -0.2748
     14 H          21.0975  -21.3350   13.0679 H       1  UNL1        0.1549
     15 C          21.7691  -19.6908   15.0130 C.3     1  UNL1        0.0768
     16 C          21.3814  -18.3711   15.6832 C.3     1  UNL1        0.0096
     17 C          21.5025  -18.4488   14.1600 C.3     1  UNL1        0.0096
     18 C          13.9719  -26.8415   14.0526 C.2     1  UNL1        0.0048
     19 C          15.0858  -26.9870   14.8014 C.2     1  UNL1        0.0580
     20 C          11.0897  -29.9551   13.9075 C.ar    1  UNL1        0.1826
     21 C          12.2064  -30.0037   13.0741 C.ar    1  UNL1        0.1732
     22 C          13.1434  -28.9902   13.1143 C.ar    1  UNL1        0.0401
     23 C          12.9747  -27.9202   14.0011 C.ar    1  UNL1        0.0042
     24 C          11.8545  -27.8807   14.8387 C.ar    1  UNL1        0.0147
     25 C          10.9211  -28.8943   14.7885 C.ar    1  UNL1        0.0946
     26 CL          9.5317  -28.8443   15.8281 Cl      1  UNL1       -0.0790
     27 O          12.3701  -31.0471   12.2173 O.3     1  UNL1       -0.4683
     28 C          13.5195  -31.8732   12.4133 C.3     1  UNL1        0.2526
     29 O          10.1666  -30.9508   13.8619 O.3     1  UNL1       -0.4716
     30 C          10.4459  -32.1299   14.6194 C.3     1  UNL1        0.2055
     31 C          10.5909  -34.0487   13.0259 C.3     1  UNL1        0.0038
     32 C           9.6869  -33.3143   14.0179 C.3     1  UNL1        0.0438
     33 C           9.2703  -34.2733   15.1349 C.3     1  UNL1        0.0038
@<TRIPOS>BOND
     1    31    32    1
     2    32    33    1
     3    32    30    1
     4    30    29    1
     5    29    20    1
     6    20    25   ar
     7    20    21   ar
     8    21    22   ar
     9    21    27    1
    10    22    23   ar
    11    23    24   ar
    12    23    18    1
    13    24    25   ar
    14    25    26    1
    15    18    19    2
    16    19     1    1
    17     1     2    2
    18     1     3   am
    19     3     5    1
    20     5    10   ar
    21     5     6   ar
    22     6     7   ar
    23     7     8   ar
    24     8     9   ar
    25     8    11    1
    26     9    10   ar
    27    11    12   am
    28    12    13    2
    29    12    15    1
    30    15    17    1
    31    15    16    1
    32    16    17    1
    33    27    28    1
    34     3     4    1
    35    11    14    1
#	Name:			ZINC09908065
#	Creating user name:	trannguyen
#	Creation time:		Wed Dec  7 14:36:19 2022


#	Modifying user name:	trannguyen
#	Modification time:	Wed Dec  7 14:36:19 2022

@<TRIPOS>MOLECULE
ZINC09908065
 43 46 0 0 0
SMALL
GASTEIGER

@<TRIPOS>ATOM
      1 C          22.5060  -22.9077   14.0685 C.ar    1  UNL1        0.2254
      2 N          22.4647  -21.7302   14.6846 N.ar    1  UNL1       -0.1808
      3 C          21.3904  -20.9559   14.5673 C.ar    1  UNL1        0.2220
      4 N          20.3530  -21.3638   13.8430 N.ar    1  UNL1       -0.1808
      5 C          20.3920  -22.5438   13.2315 C.ar    1  UNL1        0.2254
      6 N          21.4685  -23.3156   13.3442 N.ar    1  UNL1       -0.1805
      7 N          23.6244  -23.7096   14.1856 N.pl3   1  UNL1       -0.2824
      8 H          24.1655  -23.6828   15.0078 H       1  UNL1        0.1551
      9 C          24.7082  -26.2435   11.0570 C.ar    1  UNL1        0.1386
     10 C          23.9044  -26.7151   12.0844 C.ar    1  UNL1        0.0382
     11 C          23.5450  -25.8765   13.1210 C.ar    1  UNL1        0.0178
     12 C          23.9889  -24.5609   13.1349 C.ar    1  UNL1        0.0507
     13 C          24.7939  -24.0896   12.1064 C.ar    1  UNL1        0.0178
     14 C          25.1520  -24.9294   11.0703 C.ar    1  UNL1        0.0382
     15 O          25.0617  -27.0699   10.0367 O.3     1  UNL1       -0.4755
     16 C          24.8846  -26.6008    7.6725 C.3     1  UNL1        0.0512
     17 C          25.7467  -26.4789    8.9306 C.3     1  UNL1        0.2055
     18 N          19.3139  -22.9678   12.4793 N.pl3   1  UNL1       -0.2824
     19 H          19.3728  -22.9780   11.4967 H       1  UNL1        0.1551
     20 C          18.1369  -23.3832   13.1147 C.ar    1  UNL1        0.0507
     21 C          18.1995  -24.2651   14.1854 C.ar    1  UNL1        0.0178
     22 C          17.0388  -24.6704   14.8144 C.ar    1  UNL1        0.0382
     23 C          15.8099  -24.2051   14.3702 C.ar    1  UNL1        0.1386
     24 C          15.7462  -23.3282   13.2972 C.ar    1  UNL1        0.0382
     25 C          16.9064  -22.9178   12.6706 C.ar    1  UNL1        0.0178
     26 O          14.6671  -24.6084   14.9870 O.3     1  UNL1       -0.4755
     27 C          14.3881  -26.0099   14.9841 C.3     1  UNL1        0.2055
     28 C          12.8787  -26.2298   15.1024 C.3     1  UNL1        0.0512
     29 N          21.3500  -19.7311   15.2021 N.pl3   1  UNL1       -0.2951
     30 H          21.7305  -18.9363   14.7631 H       1  UNL1        0.1501
     31 C          20.7406  -19.6137   16.5291 C.3     1  UNL1        0.1761
     32 C          20.6889  -20.9718   17.1801 C.2     1  UNL1        0.2462
     33 O          21.4355  -21.2324   18.0998 O.2     1  UNL1       -0.2729
     34 N          19.8130  -21.8970   16.7404 N.am    1  UNL1       -0.2825
     35 H          19.2337  -21.6992   15.9693 H       1  UNL1        0.1549
     36 C          19.7270  -23.1387   17.3797 C.ar    1  UNL1        0.0500
     37 C          20.5804  -24.1711   17.0123 C.ar    1  UNL1        0.0143
     38 C          20.4974  -25.3933   17.6497 C.ar    1  UNL1       -0.0033
     39 C          19.5573  -25.5939   18.6441 C.ar    1  UNL1       -0.0257
     40 C          18.7022  -24.5701   19.0078 C.ar    1  UNL1       -0.0246
     41 C          18.7845  -23.3431   18.3787 C.ar    1  UNL1        0.0101
     42 C          17.6797  -24.7929   20.0922 C.3     1  UNL1        0.0307
     43 C          19.4651  -26.9310   19.3329 C.3     1  UNL1        0.0307
@<TRIPOS>BOND
     1    16    17    1
     2    17    15    1
     3    15     9    1
     4     9    14   ar
     5     9    10   ar
     6    10    11   ar
     7    11    12   ar
     8    12    13   ar
     9    12     7    1
    10    13    14   ar
    11     7     1    1
    12     1     6   ar
    13     1     2   ar
    14     2     3   ar
    15     3     4   ar
    16     3    29    1
    17     4     5   ar
    18     5     6   ar
    19     5    18    1
    20    18    20    1
    21    20    25   ar
    22    20    21   ar
    23    21    22   ar
    24    22    23   ar
    25    23    24   ar
    26    23    26    1
    27    24    25   ar
    28    26    27    1
    29    27    28    1
    30    29    31    1
    31    31    32    1
    32    32    33    2
    33    32    34   am
    34    34    36    1
    35    36    41   ar
    36    36    37   ar
    37    37    38   ar
    38    38    39   ar
    39    39    40   ar
    40    39    43    1
    41    40    41   ar
    42    40    42    1
    43     7     8    1
    44    18    19    1
    45    29    30    1
    46    34    35    1
#	Name:			ZINC09908066
#	Creating user name:	trannguyen
#	Creation time:		Wed Dec  7 14:36:20 2022


#	Modifying user name:	trannguyen
#	Modification time:	Wed Dec  7 14:36:20 2022

@<TRIPOS>MOLECULE
ZINC09908066
 43 46 0 0 0
SMALL
GASTEIGER

@<TRIPOS>ATOM
      1 C          22.3232  -22.9223   14.2860 C.ar    1  UNL1        0.2254
      2 N          22.1931  -21.7982   14.9840 N.ar    1  UNL1       -0.1808
      3 C          21.0746  -21.0855   14.8936 C.ar    1  UNL1        0.2220
      4 N          20.0841  -21.4994   14.1096 N.ar    1  UNL1       -0.1808
      5 C          20.2163  -22.6207   13.4075 C.ar    1  UNL1        0.2254
      6 N          21.3348  -23.3335   13.4978 N.ar    1  UNL1       -0.1805
      7 N          23.4855  -23.6627   14.3795 N.pl3   1  UNL1       -0.2824
      8 H          23.9507  -23.7417   15.2436 H       1  UNL1        0.1551
      9 C          25.0231  -25.5631   11.0018 C.ar    1  UNL1        0.1386
     10 C          24.3884  -26.3059   11.9866 C.ar    1  UNL1        0.0382
     11 C          23.8790  -25.6772   13.1057 C.ar    1  UNL1        0.0178
     12 C          24.0023  -24.3011   13.2450 C.ar    1  UNL1        0.0507
     13 C          24.6330  -23.5576   12.2564 C.ar    1  UNL1        0.0178
     14 C          25.1465  -24.1885   11.1404 C.ar    1  UNL1        0.0382
     15 O          25.5248  -26.1829    9.9004 O.3     1  UNL1       -0.4755
     16 C          24.7761  -26.6536    7.6512 C.3     1  UNL1        0.0512
     17 C          24.6194  -26.9828    9.1372 C.3     1  UNL1        0.2055
     18 N          19.1894  -23.0478   12.5885 N.pl3   1  UNL1       -0.2824
     19 H          19.3204  -23.0852   11.6135 H       1  UNL1        0.1551
     20 C          17.9617  -23.4280   13.1452 C.ar    1  UNL1        0.0507
     21 C          16.7817  -22.8696   12.6720 C.ar    1  UNL1        0.0178
     22 C          15.5713  -23.2486   13.2181 C.ar    1  UNL1        0.0382
     23 C          15.5348  -24.1790   14.2463 C.ar    1  UNL1        0.1386
     24 C          16.7136  -24.7334   14.7231 C.ar    1  UNL1        0.0382
     25 C          17.9244  -24.3593   14.1744 C.ar    1  UNL1        0.0178
     26 O          14.3428  -24.5481   14.7868 O.3     1  UNL1       -0.4755
     27 C          14.0874  -25.9496   14.8986 C.3     1  UNL1        0.2055
     28 C          12.6109  -26.1740   15.2308 C.3     1  UNL1        0.0512
     29 N          20.9395  -19.9186   15.6181 N.pl3   1  UNL1       -0.2951
     30 H          21.2896  -19.0720   15.2575 H       1  UNL1        0.1501
     31 C          20.2754  -19.9396   16.9237 C.3     1  UNL1        0.1761
     32 C          20.3872  -21.3182   17.5221 C.2     1  UNL1        0.2462
     33 O          21.1861  -21.5311   18.4097 O.2     1  UNL1       -0.2729
     34 N          19.5995  -22.3145   17.0712 N.am    1  UNL1       -0.2825
     35 H          19.0171  -22.1668   16.2913 H       1  UNL1        0.1549
     36 C          19.6095  -23.5603   17.7124 C.ar    1  UNL1        0.0505
     37 C          20.4256  -24.5788   17.2386 C.ar    1  UNL1        0.0178
     38 C          20.4352  -25.8061   17.8712 C.ar    1  UNL1        0.0382
     39 C          19.6298  -26.0217   18.9799 C.ar    1  UNL1        0.1388
     40 C          18.8142  -25.0045   19.4538 C.ar    1  UNL1        0.0382
     41 C          18.8036  -23.7766   18.8222 C.ar    1  UNL1        0.0178
     42 O          19.6395  -27.2306   19.6021 O.3     1  UNL1       -0.4714
     43 C          20.8668  -27.9621   19.5796 C.3     1  UNL1        0.2525
@<TRIPOS>BOND
     1    16    17    1
     2    17    15    1
     3    15     9    1
     4     9    14   ar
     5     9    10   ar
     6    10    11   ar
     7    11    12   ar
     8    12    13   ar
     9    12     7    1
    10    13    14   ar
    11     7     1    1
    12     1     6   ar
    13     1     2   ar
    14     2     3   ar
    15     3     4   ar
    16     3    29    1
    17     4     5   ar
    18     5     6   ar
    19     5    18    1
    20    18    20    1
    21    20    25   ar
    22    20    21   ar
    23    21    22   ar
    24    22    23   ar
    25    23    24   ar
    26    23    26    1
    27    24    25   ar
    28    26    27    1
    29    27    28    1
    30    29    31    1
    31    31    32    1
    32    32    33    2
    33    32    34   am
    34    34    36    1
    35    36    41   ar
    36    36    37   ar
    37    37    38   ar
    38    38    39   ar
    39    39    40   ar
    40    39    42    1
    41    40    41   ar
    42    42    43    1
    43     7     8    1
    44    18    19    1
    45    29    30    1
    46    34    35    1
#	Name:			ZINC09967372
#	Creating user name:	trannguyen
#	Creation time:		Wed Dec  7 14:36:20 2022


#	Modifying user name:	trannguyen
#	Modification time:	Wed Dec  7 14:36:20 2022

@<TRIPOS>MOLECULE
ZINC09967372
 31 33 0 0 0
SMALL
GASTEIGER

@<TRIPOS>ATOM
      1 C          19.0575  -25.4156   13.4268 C.ar    1  UNL1        0.1865
      2 N          19.1316  -26.6353   13.9227 N.ar    1  UNL1       -0.1249
      3 N          18.0436  -27.1812   14.5635 N.ar    1  UNL1       -0.1331
      4 C          16.9309  -26.4816   14.6791 C.ar    1  UNL1        0.1611
      5 S          17.3817  -24.9647   13.8504 S.2     1  UNL1       -0.0242
      6 N          20.0236  -24.6794   12.7504 N.pl3   1  UNL1       -0.2913
      7 H          20.2862  -24.9340   11.8364 H       1  UNL1        0.1541
      8 C          21.8086  -21.3936   14.5928 C.ar    1  UNL1        0.1386
      9 C          20.5014  -21.3072   14.1367 C.ar    1  UNL1        0.0382
     10 C          19.9092  -22.3951   13.5263 C.ar    1  UNL1        0.0178
     11 C          20.6229  -23.5762   13.3690 C.ar    1  UNL1        0.0500
     12 C          21.9297  -23.6637   13.8311 C.ar    1  UNL1        0.0178
     13 C          22.5221  -22.5729   14.4361 C.ar    1  UNL1        0.0382
     14 O          22.3908  -20.3218   15.1942 O.3     1  UNL1       -0.4755
     15 C          22.3306  -18.0314   15.9630 C.3     1  UNL1        0.0512
     16 C          21.8144  -19.0402   14.9349 C.3     1  UNL1        0.2055
     17 S          15.4056  -26.9273   15.4404 S.3     1  UNL1       -0.0768
     18 C          14.3739  -25.4467   15.2560 C.3     1  UNL1        0.1489
     19 C          12.9315  -25.8554   15.1032 C.2     1  UNL1        0.2341
     20 O          12.0610  -25.0113   15.0815 O.2     1  UNL1       -0.2741
     21 N          12.6089  -27.1592   14.9907 N.am    1  UNL1       -0.3010
     22 H          13.3155  -27.8445   15.0082 H       1  UNL1        0.1497
     23 C          11.2066  -27.5566   14.8423 C.3     1  UNL1        0.1000
     24 C          10.7326  -28.2110   16.1143 C.ar    1  UNL1        0.0250
     25 C           9.7423  -29.1199   16.2889 C.ar    1  UNL1        0.0043
     26 C           9.4791  -29.5881   17.5626 C.ar    1  UNL1        0.0072
     27 C          10.2191  -29.1245   18.5992 C.ar    1  UNL1        0.0352
     28 S          11.3252  -27.9855   17.7831 S.2     1  UNL1       -0.0892
     29 C          11.0769  -28.5447   13.6813 C.3     1  UNL1        0.0227
     30 C           9.8523  -28.1830   12.8383 C.3     1  UNL1        0.0021
     31 C          12.3333  -28.4766   12.8107 C.3     1  UNL1        0.0021
@<TRIPOS>BOND
     1    15    16    1
     2    16    14    1
     3    14     8    1
     4     8    13   ar
     5     8     9   ar
     6     9    10   ar
     7    10    11   ar
     8    11    12   ar
     9    11     6    1
    10    12    13   ar
    11     6     1    1
    12     1     5   ar
    13     1     2   ar
    14     2     3   ar
    15     3     4   ar
    16     4     5   ar
    17     4    17    1
    18    17    18    1
    19    18    19    1
    20    19    20    2
    21    19    21   am
    22    21    23    1
    23    23    24    1
    24    23    29    1
    25    24    28   ar
    26    24    25   ar
    27    25    26   ar
    28    26    27   ar
    29    27    28   ar
    30    29    30    1
    31    29    31    1
    32     6     7    1
    33    21    22    1
#	Name:			ZINC09968753
#	Creating user name:	trannguyen
#	Creation time:		Wed Dec  7 14:36:20 2022


#	Modifying user name:	trannguyen
#	Modification time:	Wed Dec  7 14:36:20 2022

@<TRIPOS>MOLECULE
ZINC09968753
 32 34 0 0 0
SMALL
GASTEIGER

@<TRIPOS>ATOM
      1 S          18.6952  -28.2832   16.7159 S.3     1  UNL1       -0.0880
      2 C          22.7092  -27.7225   11.4040 C.ar    1  UNL1        0.0509
      3 C          22.1312  -28.9864   11.3112 C.ar    1  UNL1        0.0162
      4 C          21.2424  -29.4357   12.2517 C.ar    1  UNL1        0.0209
      5 C          20.8817  -28.6259   13.3534 C.ar    1  UNL1        0.0885
      6 C          21.4859  -27.3500   13.4174 C.ar    1  UNL1        0.0502
      7 C          22.3799  -26.9044   12.4769 C.ar    1  UNL1        0.0227
      8 S          20.7866  -26.6734   14.9041 S.2     1  UNL1       -0.0603
      9 C          19.7696  -28.0784   15.3346 C.ar    1  UNL1        0.1364
     10 N          20.0264  -28.9198   14.3587 N.ar    1  UNL1       -0.2320
     11 C          24.9177  -27.6209   10.5208 C.2     1  UNL1        0.2261
     12 O          25.3217  -28.2240   11.4925 O.2     1  UNL1       -0.2748
     13 N          23.6160  -27.2840   10.4299 N.am    1  UNL1       -0.2839
     14 H          23.3022  -26.7298    9.6791 H       1  UNL1        0.1549
     15 C          25.0776  -26.7990    8.1866 C.3     1  UNL1        0.0101
     16 C          25.8714  -27.2486    9.4149 C.3     1  UNL1        0.0854
     17 C          19.5301  -27.2244   17.9233 C.3     1  UNL1        0.0732
     18 C          18.7150  -25.9463   18.1307 C.3     1  UNL1        0.0880
     19 C          17.4872  -25.9707   17.2181 C.3     1  UNL1        0.0105
     20 C          19.5657  -24.7481   17.7965 C.2     1  UNL1        0.2265
     21 O          20.7246  -24.7089   18.1522 O.2     1  UNL1       -0.2748
     22 N          19.0388  -23.7202   17.1021 N.am    1  UNL1       -0.2839
     23 H          18.0801  -23.7172   16.8784 H       1  UNL1        0.1549
     24 C          19.8555  -22.6557   16.6985 C.ar    1  UNL1        0.0505
     25 C          19.9890  -21.5364   17.5092 C.ar    1  UNL1        0.0178
     26 C          20.7982  -20.4899   17.1131 C.ar    1  UNL1        0.0382
     27 C          21.4687  -20.5517   15.9003 C.ar    1  UNL1        0.1386
     28 C          21.3317  -21.6674   15.0874 C.ar    1  UNL1        0.0382
     29 C          20.5273  -22.7172   15.4849 C.ar    1  UNL1        0.0178
     30 O          22.2609  -19.5185   15.5083 O.3     1  UNL1       -0.4755
     31 C          21.6089  -18.3795   14.9429 C.3     1  UNL1        0.2055
     32 C          21.7113  -18.4382   13.4175 C.3     1  UNL1        0.0512
@<TRIPOS>BOND
     1    15    16    1
     2    16    11    1
     3    11    12    2
     4    11    13   am
     5    13     2    1
     6     2     7   ar
     7     2     3   ar
     8     3     4   ar
     9     4     5   ar
    10     5    10   ar
    11     5     6   ar
    12     6     7   ar
    13     6     8   ar
    14     8     9   ar
    15     9    10   ar
    16     9     1    1
    17     1    17    1
    18    17    18    1
    19    18    19    1
    20    18    20    1
    21    20    21    2
    22    20    22   am
    23    22    24    1
    24    24    29   ar
    25    24    25   ar
    26    25    26   ar
    27    26    27   ar
    28    27    28   ar
    29    27    30    1
    30    28    29   ar
    31    30    31    1
    32    31    32    1
    33    13    14    1
    34    22    23    1
#	Name:			ZINC10059925
#	Creating user name:	trannguyen
#	Creation time:		Wed Dec  7 14:36:20 2022


#	Modifying user name:	trannguyen
#	Modification time:	Wed Dec  7 14:36:20 2022

@<TRIPOS>MOLECULE
ZINC10059925
 42 45 0 0 0
SMALL
GASTEIGER

@<TRIPOS>ATOM
      1 C          14.5103  -25.7278   14.5897 C.ar    1  UNL1        0.2254
      2 N          14.8972  -25.2614   13.4064 N.ar    1  UNL1       -0.1808
      3 C          16.1886  -25.2359   13.0919 C.ar    1  UNL1        0.2220
      4 N          17.0923  -25.6858   13.9569 N.ar    1  UNL1       -0.1808
      5 C          16.7051  -26.1565   15.1383 C.ar    1  UNL1        0.2254
      6 N          15.4140  -26.1777   15.4546 N.ar    1  UNL1       -0.1805
      7 N          13.1686  -25.7502   14.9182 N.pl3   1  UNL1       -0.2824
      8 H          12.7358  -24.9415   15.2757 H       1  UNL1        0.1551
      9 C          10.9556  -29.2404   14.3969 C.ar    1  UNL1       -0.0221
     10 C          10.9242  -28.5784   15.6105 C.ar    1  UNL1       -0.0030
     11 C          11.6610  -27.4238   15.7884 C.ar    1  UNL1        0.0144
     12 C          12.4253  -26.9217   14.7431 C.ar    1  UNL1        0.0504
     13 C          12.4502  -27.5859   13.5236 C.ar    1  UNL1        0.0144
     14 C          11.7153  -28.7429   13.3539 C.ar    1  UNL1       -0.0030
     15 C          11.1045  -31.6739   13.9443 C.3     1  UNL1        0.0050
     16 C          10.1553  -30.5034   14.2084 C.3     1  UNL1        0.0264
     17 N          17.6442  -26.6241   16.0372 N.pl3   1  UNL1       -0.2824
     18 H          17.6913  -27.5853   16.2446 H       1  UNL1        0.1551
     19 C          18.5280  -25.7319   16.6524 C.ar    1  UNL1        0.0504
     20 C          19.8810  -25.7662   16.3404 C.ar    1  UNL1        0.0144
     21 C          20.7503  -24.8799   16.9457 C.ar    1  UNL1       -0.0030
     22 C          20.2768  -23.9671   17.8701 C.ar    1  UNL1       -0.0221
     23 C          18.9312  -23.9342   18.1873 C.ar    1  UNL1       -0.0030
     24 C          18.0557  -24.8135   17.5812 C.ar    1  UNL1        0.0144
     25 C          21.2292  -23.0057   18.5333 C.3     1  UNL1        0.0264
     26 C          20.6573  -21.5886   18.4592 C.3     1  UNL1        0.0050
     27 N          16.5906  -24.7476   11.8653 N.pl3   1  UNL1       -0.2951
     28 H          15.9582  -24.2414   11.3056 H       1  UNL1        0.1501
     29 C          17.9584  -24.9825   11.3960 C.3     1  UNL1        0.1761
     30 C          18.8713  -23.9237   11.9587 C.2     1  UNL1        0.2462
     31 O          18.8777  -22.8104   11.4777 O.2     1  UNL1       -0.2729
     32 N          19.6806  -24.2141   12.9967 N.am    1  UNL1       -0.2825
     33 H          19.7805  -25.1462   13.2973 H       1  UNL1        0.1549
     34 C          20.3798  -23.1893   13.6478 C.ar    1  UNL1        0.0505
     35 C          21.7435  -23.0359   13.4364 C.ar    1  UNL1        0.0178
     36 C          22.4310  -22.0224   14.0745 C.ar    1  UNL1        0.0382
     37 C          21.7617  -21.1649   14.9353 C.ar    1  UNL1        0.1386
     38 C          20.4003  -21.3208   15.1510 C.ar    1  UNL1        0.0382
     39 C          19.7104  -22.3303   14.5092 C.ar    1  UNL1        0.0178
     40 O          22.4404  -20.1707   15.5676 O.3     1  UNL1       -0.4755
     41 C          21.8716  -18.8608   15.5136 C.3     1  UNL1        0.2055
     42 C          21.9172  -18.3439   14.0743 C.3     1  UNL1        0.0512
@<TRIPOS>BOND
     1    15    16    1
     2    16     9    1
     3     9    14   ar
     4     9    10   ar
     5    10    11   ar
     6    11    12   ar
     7    12    13   ar
     8    12     7    1
     9    13    14   ar
    10     7     1    1
    11     1     6   ar
    12     1     2   ar
    13     2     3   ar
    14     3     4   ar
    15     3    27    1
    16     4     5   ar
    17     5     6   ar
    18     5    17    1
    19    17    19    1
    20    19    24   ar
    21    19    20   ar
    22    20    21   ar
    23    21    22   ar
    24    22    23   ar
    25    22    25    1
    26    23    24   ar
    27    25    26    1
    28    27    29    1
    29    29    30    1
    30    30    31    2
    31    30    32   am
    32    32    34    1
    33    34    39   ar
    34    34    35   ar
    35    35    36   ar
    36    36    37   ar
    37    37    38   ar
    38    37    40    1
    39    38    39   ar
    40    40    41    1
    41    41    42    1
    42     7     8    1
    43    17    18    1
    44    27    28    1
    45    32    33    1
#	Name:			ZINC10194879
#	Creating user name:	trannguyen
#	Creation time:		Wed Dec  7 14:36:20 2022


#	Modifying user name:	trannguyen
#	Modification time:	Wed Dec  7 14:36:20 2022

@<TRIPOS>MOLECULE
ZINC10194879
 30 32 0 0 0
SMALL
GASTEIGER

@<TRIPOS>ATOM
      1 O          18.0752  -24.4272   13.6004 O.3     1  UNL1       -0.4350
      2 C          16.7601  -24.2277   13.8291 C.2     1  UNL1        0.3475
      3 O          16.1972  -23.2641   13.3436 O.2     1  UNL1       -0.2443
      4 C          16.0350  -25.1400   14.6344 C.ar    1  UNL1        0.1023
      5 C          16.1845  -25.4210   15.9862 C.ar    1  UNL1       -0.0078
      6 C          15.3489  -26.3595   16.5280 C.ar    1  UNL1        0.0178
      7 C          14.4096  -26.9598   15.7162 C.ar    1  UNL1        0.0806
      8 S          14.6911  -26.2190   14.1742 S.2     1  UNL1       -0.0661
      9 C          17.2281  -24.7249   16.8213 C.3     1  UNL1        0.0318
     10 N          13.4670  -27.9230   16.0522 N.am    1  UNL1       -0.2790
     11 C          12.1525  -27.6441   15.9498 C.2     1  UNL1        0.2260
     12 O          11.7925  -26.5521   15.5642 O.2     1  UNL1       -0.2748
     13 H          13.7592  -28.8095   16.3652 H       1  UNL1        0.1553
     14 C          11.1298  -28.6893   16.3143 C.3     1  UNL1        0.0768
     15 C          10.8776  -29.8126   15.3067 C.3     1  UNL1        0.0096
     16 C           9.8294  -28.7165   15.5086 C.3     1  UNL1        0.0096
     17 C          18.5918  -23.9740   12.3474 C.3     1  UNL1        0.2927
     18 N          20.8494  -23.0137   12.6620 N.am    1  UNL1       -0.3010
     19 C          19.5199  -22.8095   12.5783 C.2     1  UNL1        0.2672
     20 O          19.0704  -21.6884   12.6887 O.2     1  UNL1       -0.2711
     21 H          21.2143  -23.9236   12.5725 H       1  UNL1        0.1496
     22 C          21.7517  -21.8816   12.8864 C.3     1  UNL1        0.0942
     23 C          22.3064  -21.9458   14.3109 C.3     1  UNL1        0.0473
     24 C          20.4608  -22.9049   16.3161 C.3     1  UNL1        0.0307
     25 C          20.6824  -21.4245   16.1425 C.ar    1  UNL1       -0.0257
     26 C          20.0028  -20.5252   16.9430 C.ar    1  UNL1       -0.0046
     27 C          20.2063  -19.1674   16.7842 C.ar    1  UNL1       -0.0003
     28 C          21.0896  -18.7084   15.8246 C.ar    1  UNL1       -0.0003
     29 C          21.7728  -19.6076   15.0277 C.ar    1  UNL1       -0.0045
     30 C          21.5653  -20.9656   15.1832 C.ar    1  UNL1       -0.0244
@<TRIPOS>BOND
     1    24    25    1
     2    25    30   ar
     3    25    26   ar
     4    26    27   ar
     5    27    28   ar
     6    28    29   ar
     7    29    30   ar
     8    30    23    1
     9    23    22    1
    10    22    18    1
    11    18    19   am
    12    19    20    2
    13    19    17    1
    14    17     1    1
    15     1     2    1
    16     2     3    2
    17     2     4    1
    18     4     8   ar
    19     4     5   ar
    20     5     6   ar
    21     5     9    1
    22     6     7   ar
    23     7     8   ar
    24     7    10    1
    25    10    11   am
    26    11    12    2
    27    11    14    1
    28    14    16    1
    29    14    15    1
    30    15    16    1
    31    18    21    1
    32    10    13    1
#	Name:			ZINC10219314
#	Creating user name:	trannguyen
#	Creation time:		Wed Dec  7 14:36:20 2022


#	Modifying user name:	trannguyen
#	Modification time:	Wed Dec  7 14:36:20 2022

@<TRIPOS>MOLECULE
ZINC10219314
 37 40 0 0 0
SMALL
GASTEIGER

@<TRIPOS>ATOM
      1 C          19.1182  -22.9787   13.0084 C.2     1  UNL1        0.2462
      2 O          19.2619  -22.7138   11.8307 O.2     1  UNL1       -0.2701
      3 N          20.1442  -22.8126   13.8665 N.am    1  UNL1       -0.2938
      4 H          20.0278  -23.0270   14.8203 H       1  UNL1        0.1502
      5 C          16.5599  -24.9612   14.9137 C.ar    1  UNL1        0.1221
      6 C          15.3828  -24.4279   14.4188 C.ar    1  UNL1        0.0199
      7 C          15.4173  -23.4210   13.4708 C.ar    1  UNL1        0.0015
      8 C          16.6273  -22.9455   13.0086 C.ar    1  UNL1        0.0046
      9 C          17.8181  -23.4830   13.4994 C.ar    1  UNL1        0.0547
     10 C          17.7762  -24.4992   14.4556 C.ar    1  UNL1        0.0244
     11 S          16.5049  -26.2384   16.1263 S.O2    1  UNL1        0.0605
     12 O          15.1352  -26.5742   16.3007 O.2     1  UNL1       -0.1530
     13 O          17.4826  -27.1982   15.7498 O.2     1  UNL1       -0.1530
     14 N          17.0160  -25.5779   17.5564 N.3     1  UNL1       -0.1749
     15 H          17.0342  -24.5668   17.4239 H       1  UNL1        0.1492
     16 C          18.3173  -25.9550   18.1136 C.3     1  UNL1        0.1177
     17 C          20.8552  -22.5218   18.2528 C.ar    1  UNL1       -0.0000
     18 C          21.3244  -23.7463   18.6900 C.ar    1  UNL1       -0.0003
     19 C          20.5031  -24.8572   18.6452 C.ar    1  UNL1       -0.0029
     20 C          19.2126  -24.7438   18.1629 C.ar    1  UNL1       -0.0048
     21 C          18.7452  -23.5203   17.7204 C.ar    1  UNL1       -0.0029
     22 C          19.5647  -22.4082   17.7705 C.ar    1  UNL1       -0.0003
     23 C          21.4325  -22.3128   13.3799 C.3     1  UNL1        0.1503
     24 C          21.5966  -20.8702   13.7835 C.ar    1  UNL1        0.0013
     25 C          21.5088  -19.8718   12.8313 C.ar    1  UNL1       -0.0025
     26 C          21.6549  -18.5482   13.2022 C.ar    1  UNL1       -0.0003
     27 C          21.8979  -18.2236   14.5237 C.ar    1  UNL1       -0.0000
     28 C          21.9909  -19.2222   15.4750 C.ar    1  UNL1       -0.0003
     29 C          21.8405  -20.5455   15.1048 C.ar    1  UNL1       -0.0025
     30 C          22.5642  -23.1442   13.9873 C.3     1  UNL1        0.1299
     31 C          23.4651  -25.3151   13.4020 C.3     1  UNL1        0.1381
     32 C          24.0814  -26.1283   12.2605 C.3     1  UNL1        0.2029
     33 O          25.2725  -25.4787   11.8082 O.3     1  UNL1       -0.3412
     34 C          25.0596  -24.1414   11.3479 C.3     1  UNL1        0.2029
     35 C          24.4533  -23.3082   12.4801 C.3     1  UNL1        0.1381
     36 N          23.1933  -23.9459   12.9154 N.4     1  UNL1        0.2813
     37 H          22.5545  -23.9955   12.1217 H       1  UNL1        0.2069
@<TRIPOS>UNITY_ATOM_ATTR
36 1
charge 1
@<TRIPOS>BOND
     1    17    22   ar
     2    17    18   ar
     3    18    19   ar
     4    19    20   ar
     5    20    21   ar
     6    20    16    1
     7    21    22   ar
     8    16    14    1
     9    14    11    1
    10    11    12    2
    11    11    13    2
    12    11     5    1
    13     5    10   ar
    14     5     6   ar
    15     6     7   ar
    16     7     8   ar
    17     8     9   ar
    18     9    10   ar
    19     9     1    1
    20     1     2    2
    21     1     3   am
    22     3    23    1
    23    23    30    1
    24    23    24    1
    25    30    36    1
    26    31    32    1
    27    31    36    1
    28    32    33    1
    29    33    34    1
    30    34    35    1
    31    35    36    1
    32    24    29   ar
    33    24    25   ar
    34    25    26   ar
    35    26    27   ar
    36    27    28   ar
    37    28    29   ar
    38    14    15    1
    39     3     4    1
    40    36    37    1
#	Name:			ZINC10261056
#	Creating user name:	trannguyen
#	Creation time:		Wed Dec  7 14:36:20 2022


#	Modifying user name:	trannguyen
#	Modification time:	Wed Dec  7 14:36:20 2022

@<TRIPOS>MOLECULE
ZINC10261056
 39 41 0 0 0
SMALL
GASTEIGER

@<TRIPOS>ATOM
      1 N          20.5234  -28.6506   12.6217 N.am    1  UNL1       -0.2803
      2 C          20.3075  -27.4767   13.2475 C.2     1  UNL1        0.3012
      3 O          21.2008  -26.9550   13.8863 O.2     1  UNL1       -0.2528
      4 N          19.1013  -26.8809   13.1652 N.am    1  UNL1       -0.2872
      5 H          19.8000  -29.0729   12.1044 H       1  UNL1        0.1515
      6 H          18.3779  -27.3033   12.6478 H       1  UNL1        0.1510
      7 C          21.8344  -29.2982   12.7111 C.3     1  UNL1        0.1784
      8 C          22.7403  -28.7488   11.6394 C.ar    1  UNL1        0.2834
      9 N          22.8629  -29.2606   10.3850 N.ar    1  UNL1       -0.2383
     10 C          23.7818  -28.4809    9.7115 C.ar    1  UNL1        0.1820
     11 C          24.3118  -28.5019    8.4284 C.ar    1  UNL1        0.0458
     12 C          25.2436  -27.5556    8.0590 C.ar    1  UNL1        0.0039
     13 C          25.6552  -26.5844    8.9607 C.ar    1  UNL1        0.0039
     14 C          25.1447  -26.5482   10.2273 C.ar    1  UNL1        0.0458
     15 C          24.1984  -27.4970   10.6239 C.ar    1  UNL1        0.1820
     16 N          23.5232  -27.7193   11.7808 N.ar    1  UNL1       -0.2383
     17 H          22.3850  -30.0421   10.0243 H       1  UNL1        0.3111
     18 H          23.6125  -27.1831   12.6016 H       1  UNL1        0.3111
     19 C          21.6722  -30.8073   12.5176 C.3     1  UNL1        0.0438
     20 C          20.2918  -31.1001   11.9264 C.3     1  UNL1        0.0599
     21 C          18.5654  -32.9978   10.6646 C.3     1  UNL1        0.0692
     22 S          20.2725  -32.7783   11.2379 S.3     1  UNL1       -0.1393
     23 C          18.8667  -25.6048   13.8454 C.3     1  UNL1        0.1120
     24 C          19.2927  -24.4539   12.9317 C.3     1  UNL1        0.1087
     25 N          20.6432  -24.0170   13.2939 N.pl3   1  UNL1       -0.3300
     26 H          21.3844  -24.6650   13.3030 H       1  UNL1        0.1469
     27 C          20.8794  -22.6812   13.6265 C.ar    1  UNL1        0.0674
     28 C          21.0443  -21.7329   12.6246 C.ar    1  UNL1        0.0159
     29 C          21.2776  -20.4132   12.9568 C.ar    1  UNL1        0.0052
     30 C          21.3472  -20.0348   14.2854 C.ar    1  UNL1        0.0732
     31 C          21.1834  -20.9759   15.2850 C.ar    1  UNL1        0.0292
     32 C          20.9441  -22.2968   14.9596 C.ar    1  UNL1        0.1558
     33 C          21.6014  -18.5934   14.6442 C.3     1  UNL1        0.4186
     34 F          20.4449  -18.0413   15.2052 F       1  UNL1       -0.1659
     35 F          22.6487  -18.5208   15.5689 F       1  UNL1       -0.1659
     36 F          21.9470  -17.8799   13.4915 F       1  UNL1       -0.1659
     37 N          20.7629  -23.3025   16.0302 N.pl3   1  UNL1        0.0589
     38 O          21.6289  -24.1333   16.2382 O.2     1  UNL1       -0.1261
     39 O          19.7477  -23.2994   16.7033 O.2     1  UNL1       -0.1261
@<TRIPOS>UNITY_ATOM_ATTR
16 1
charge 1
@<TRIPOS>BOND
     1    21    22    1
     2    22    20    1
     3    20    19    1
     4    19     7    1
     5     7     8    1
     6     7     1    1
     7     8    16   ar
     8     8     9   ar
     9     9    10   ar
    10    10    15   ar
    11    10    11   ar
    12    11    12   ar
    13    12    13   ar
    14    13    14   ar
    15    14    15   ar
    16    15    16   ar
    17     1     2   am
    18     2     3    2
    19     2     4   am
    20     4    23    1
    21    23    24    1
    22    24    25    1
    23    25    27    1
    24    27    32   ar
    25    27    28   ar
    26    28    29   ar
    27    29    30   ar
    28    30    31   ar
    29    30    33    1
    30    31    32   ar
    31    32    37    1
    32    37    38    2
    33    37    39    2
    34    33    34    1
    35    33    35    1
    36    33    36    1
    37     9    17    1
    38    16    18    1
    39     1     5    1
    40     4     6    1
    41    25    26    1
#	Name:			ZINC10477205
#	Creating user name:	trannguyen
#	Creation time:		Wed Dec  7 14:36:19 2022


#	Modifying user name:	trannguyen
#	Modification time:	Wed Dec  7 14:36:19 2022

@<TRIPOS>MOLECULE
ZINC10477205
 39 41 0 0 0
SMALL
GASTEIGER

@<TRIPOS>ATOM
      1 S          20.6501  -21.6765   14.5359 S.3     1  UNL1       -0.0672
      2 C          21.6282  -25.3991   13.9008 C.ar    1  UNL1        0.1531
      3 N          22.7444  -24.8843   14.3330 N.ar    1  UNL1       -0.1323
      4 N          22.5833  -23.6357   14.5920 N.ar    1  UNL1       -0.1224
      5 C          21.3446  -23.2835   14.3367 C.ar    1  UNL1        0.1936
      6 N          20.6949  -24.3995   13.8932 N.ar    1  UNL1       -0.2892
      7 C          21.4052  -26.8322   13.4913 C.3     1  UNL1        0.1510
      8 N          23.5035  -26.5352   12.2156 N.am    1  UNL1       -0.2638
      9 C          22.3261  -27.1773   12.3494 C.2     1  UNL1        0.2352
     10 O          22.0078  -28.0328   11.5509 O.2     1  UNL1       -0.2742
     11 H          23.7619  -25.8406   12.8638 H       1  UNL1        0.1568
     12 C          25.0197  -26.5526    7.5535 C.3     1  UNL1        0.0527
     13 C          25.1509  -26.9220    9.0086 C.ar    1  UNL1        0.0678
     14 C          26.2011  -27.6597    9.4448 C.ar    1  UNL1        0.0528
     15 S          25.8262  -27.7724   11.1882 S.2     1  UNL1       -0.0512
     16 C          24.3529  -26.8535   11.1623 C.ar    1  UNL1        0.1652
     17 N          24.2437  -26.5400    9.8859 N.ar    1  UNL1       -0.2283
     18 C          19.2904  -24.5037   13.4895 C.3     1  UNL1        0.1356
     19 C          18.4261  -24.6603   14.7140 C.2     1  UNL1       -0.0017
     20 C          17.8089  -25.7935   14.9394 C.2     1  UNL1       -0.0029
     21 C          20.9164  -21.4366   16.3100 C.3     1  UNL1        0.1312
     22 C          20.0401  -20.2846   16.8060 C.3     1  UNL1        0.0218
     23 C          20.5519  -22.6989   17.0480 C.2     1  UNL1        0.2362
     24 O          19.4132  -22.8715   17.4285 O.2     1  UNL1       -0.2739
     25 N          21.4910  -23.6359   17.2852 N.am    1  UNL1       -0.2832
     26 H          22.3980  -23.5279   16.9180 H       1  UNL1        0.1549
     27 C          21.1766  -24.7637   18.0543 C.ar    1  UNL1        0.0504
     28 C          20.5648  -25.8601   17.4611 C.ar    1  UNL1        0.0159
     29 C          20.2558  -26.9718   18.2188 C.ar    1  UNL1        0.0159
     30 C          20.5563  -26.9935   19.5745 C.ar    1  UNL1        0.0504
     31 C          21.1625  -25.8947   20.1690 C.ar    1  UNL1        0.0159
     32 C          21.4771  -24.7853   19.4099 C.ar    1  UNL1        0.0159
     33 N          20.2427  -28.1216   20.3434 N.am    1  UNL1       -0.2839
     34 C          21.0180  -29.2219   20.2728 C.2     1  UNL1        0.2256
     35 O          21.9403  -29.2644   19.4863 O.2     1  UNL1       -0.2748
     36 H          19.4562  -28.1108   20.9354 H       1  UNL1        0.1549
     37 C          20.7387  -30.3992   21.1711 C.3     1  UNL1        0.0768
     38 C          19.8532  -31.4052   20.4329 C.3     1  UNL1        0.0096
     39 C          22.0584  -31.0695   21.5585 C.3     1  UNL1        0.0096
@<TRIPOS>BOND
     1    12    13    1
     2    13    17   ar
     3    13    14   ar
     4    14    15   ar
     5    15    16   ar
     6    16    17   ar
     7    16     8    1
     8     8     9   am
     9     9    10    2
    10     9     7    1
    11     7     2    1
    12     2     6   ar
    13     2     3   ar
    14     3     4   ar
    15     4     5   ar
    16     5     6   ar
    17     5     1    1
    18     6    18    1
    19    18    19    1
    20    19    20    2
    21     1    21    1
    22    21    22    1
    23    21    23    1
    24    23    24    2
    25    23    25   am
    26    25    27    1
    27    27    32   ar
    28    27    28   ar
    29    28    29   ar
    30    29    30   ar
    31    30    31   ar
    32    30    33    1
    33    31    32   ar
    34    33    34   am
    35    34    35    2
    36    34    37    1
    37    37    38    1
    38    37    39    1
    39     8    11    1
    40    25    26    1
    41    33    36    1
#	Name:			ZINC10478975
#	Creating user name:	trannguyen
#	Creation time:		Wed Dec  7 14:36:19 2022


#	Modifying user name:	trannguyen
#	Modification time:	Wed Dec  7 14:36:19 2022

@<TRIPOS>MOLECULE
ZINC10478975
 39 41 0 0 0
SMALL
GASTEIGER

@<TRIPOS>ATOM
      1 C          11.5016  -26.9901   14.0411 C.ar    1  UNL1        0.1531
      2 N          11.6478  -25.8660   14.6837 N.ar    1  UNL1       -0.1323
      3 N          12.8942  -25.6426   14.9038 N.ar    1  UNL1       -0.1224
      4 C          13.6168  -26.6207   14.4092 C.ar    1  UNL1        0.1936
      5 N          12.7507  -27.5084   13.8380 N.ar    1  UNL1       -0.2892
      6 C          10.1977  -27.6024   13.5981 C.3     1  UNL1        0.1510
      7 N          10.1365  -28.4844   15.9082 N.am    1  UNL1       -0.2638
      8 C           9.7381  -28.6038   14.6262 C.2     1  UNL1        0.2352
      9 O           9.0099  -29.5170   14.3000 O.2     1  UNL1       -0.2742
     10 H          10.7277  -27.7431   16.1730 H       1  UNL1        0.1568
     11 C           7.1674  -30.2851   19.3689 C.3     1  UNL1        0.0524
     12 C           8.3885  -30.3394   18.4873 C.ar    1  UNL1        0.0633
     13 C           9.2466  -31.3864   18.5549 C.ar    1  UNL1        0.0238
     14 S          10.4505  -30.9090   17.3239 S.2     1  UNL1       -0.0561
     15 C           9.7125  -29.4080   16.8565 C.ar    1  UNL1        0.1649
     16 N           8.6497  -29.3667   17.6362 N.ar    1  UNL1       -0.2286
     17 C           9.1989  -32.6139   19.4279 C.3     1  UNL1        0.0395
     18 C          13.0891  -28.7583   13.1529 C.3     1  UNL1        0.1356
     19 C          13.1186  -29.8866   14.1515 C.2     1  UNL1       -0.0017
     20 C          12.4306  -30.9783   13.9268 C.2     1  UNL1       -0.0029
     21 S          15.3725  -26.7583   14.4653 S.3     1  UNL1       -0.0658
     22 C          15.8342  -25.0556   14.0608 C.3     1  UNL1        0.1501
     23 C          17.2698  -24.8178   14.4527 C.2     1  UNL1        0.2376
     24 O          17.6396  -25.0662   15.5808 O.2     1  UNL1       -0.2738
     25 N          18.1428  -24.3289   13.5498 N.am    1  UNL1       -0.2832
     26 H          17.8605  -24.1912   12.6167 H       1  UNL1        0.1549
     27 C          19.4504  -24.0171   13.9383 C.ar    1  UNL1        0.0516
     28 C          20.5066  -24.8258   13.5371 C.ar    1  UNL1        0.0148
     29 C          21.7978  -24.5184   13.9199 C.ar    1  UNL1        0.0025
     30 C          22.0433  -23.4064   14.7026 C.ar    1  UNL1        0.0148
     31 C          20.9917  -22.5942   15.1073 C.ar    1  UNL1        0.0515
     32 C          19.6941  -22.8971   14.7197 C.ar    1  UNL1        0.0293
     33 N          21.2411  -21.4687   15.9004 N.am    1  UNL1       -0.2839
     34 C          21.5089  -20.2819   15.3206 C.2     1  UNL1        0.2256
     35 O          21.6165  -20.2065   14.1149 O.2     1  UNL1       -0.2748
     36 H          21.2211  -21.5438   16.8818 H       1  UNL1        0.1549
     37 C          21.6743  -19.0484   16.1704 C.3     1  UNL1        0.0768
     38 C          22.3472  -17.9482   15.3471 C.3     1  UNL1        0.0096
     39 C          20.3010  -18.5654   16.6411 C.3     1  UNL1        0.0096
@<TRIPOS>BOND
     1    11    12    1
     2    12    16   ar
     3    12    13   ar
     4    13    14   ar
     5    13    17    1
     6    14    15   ar
     7    15    16   ar
     8    15     7    1
     9     7     8   am
    10     8     9    2
    11     8     6    1
    12     6     1    1
    13     1     5   ar
    14     1     2   ar
    15     2     3   ar
    16     3     4   ar
    17     4     5   ar
    18     4    21    1
    19     5    18    1
    20    18    19    1
    21    19    20    2
    22    21    22    1
    23    22    23    1
    24    23    24    2
    25    23    25   am
    26    25    27    1
    27    27    32   ar
    28    27    28   ar
    29    28    29   ar
    30    29    30   ar
    31    30    31   ar
    32    31    32   ar
    33    31    33    1
    34    33    34   am
    35    34    35    2
    36    34    37    1
    37    37    38    1
    38    37    39    1
    39     7    10    1
    40    25    26    1
    41    33    36    1
#	Name:			ZINC10535630
#	Creating user name:	trannguyen
#	Creation time:		Wed Dec  7 14:36:20 2022


#	Modifying user name:	trannguyen
#	Modification time:	Wed Dec  7 14:36:20 2022

@<TRIPOS>MOLECULE
ZINC10535630
 36 38 0 0 0
SMALL
GASTEIGER

@<TRIPOS>ATOM
      1 C          25.0897  -27.0369   10.1536 C.ar    1  UNL1        0.1026
      2 C          23.9290  -27.7028   10.4087 C.ar    1  UNL1       -0.0049
      3 C          23.1371  -27.3293   11.5019 C.ar    1  UNL1        0.0518
      4 C          21.8995  -27.8807   11.9507 C.ar    1  UNL1        0.1284
      5 N          21.3155  -27.3677   13.0210 N.ar    1  UNL1       -0.2126
      6 C          21.8379  -26.3584   13.6941 C.ar    1  UNL1        0.1853
      7 N          22.9789  -25.8048   13.3306 N.ar    1  UNL1       -0.2204
      8 C          23.6309  -26.2506   12.2764 C.ar    1  UNL1        0.1147
      9 S          25.1446  -25.8193   11.4574 S.2     1  UNL1       -0.0617
     10 N          21.3190  -28.9354   11.2763 N.pl3   1  UNL1       -0.3425
     11 C          23.4978  -28.8383    9.5166 C.3     1  UNL1        0.0319
     12 H          21.7589  -29.3125   10.4804 H       1  UNL1        0.1437
     13 H          20.4650  -29.3106   11.5910 H       1  UNL1        0.1437
     14 C          26.0555  -27.2641    9.0741 C.2     1  UNL1        0.3470
     15 O          26.0811  -26.5182    8.1141 O.2     1  UNL1       -0.2443
     16 O          26.9158  -28.3005    9.1459 O.3     1  UNL1       -0.4451
     17 C          26.8683  -30.0730   10.8151 C.3     1  UNL1        0.0513
     18 C          27.3866  -28.6761   10.4671 C.3     1  UNL1        0.2089
     19 C          21.1174  -25.8313   14.9083 C.3     1  UNL1        0.2736
     20 O          21.6357  -24.5178   15.2464 O.3     1  UNL1       -0.4360
     21 C          20.8383  -23.4606   14.9907 C.2     1  UNL1        0.3572
     22 O          21.0916  -22.3759   15.4785 O.2     1  UNL1       -0.2433
     23 C          19.6658  -23.6191   14.1242 C.ar    1  UNL1        0.1293
     24 C          18.4027  -23.9269   14.5375 C.ar    1  UNL1        0.0074
     25 C          17.5907  -23.9767   13.3822 C.ar    1  UNL1        0.0847
     26 C          18.4072  -23.7024   12.2999 C.ar    1  UNL1        0.0401
     27 N          19.6525  -23.4886   12.7520 N.ar    1  UNL1       -0.3514
     28 C          17.9724  -23.6529   10.8578 C.3     1  UNL1        0.0500
     29 C          17.9571  -24.1649   15.9573 C.3     1  UNL1        0.0330
     30 H          20.4330  -23.2727   12.1923 H       1  UNL1        0.1658
     31 C          16.1486  -24.2710   13.3380 C.2     1  UNL1        0.3419
     32 O          15.3410  -23.3665   13.4191 O.2     1  UNL1       -0.2449
     33 O          15.7243  -25.5434   13.2076 O.3     1  UNL1       -0.4492
     34 C          15.1199  -26.1598   14.3751 C.3     1  UNL1        0.1694
     35 C          13.8758  -26.9432   13.9519 C.3     1  UNL1        0.0473
     36 C          16.1249  -27.1117   15.0270 C.3     1  UNL1        0.0473
@<TRIPOS>BOND
     1    17    18    1
     2    18    16    1
     3    16    14    1
     4    14    15    2
     5    14     1    1
     6     1     9   ar
     7     1     2   ar
     8     2     3   ar
     9     2    11    1
    10     3     8   ar
    11     3     4   ar
    12     4     5   ar
    13     4    10    1
    14     5     6   ar
    15     6     7   ar
    16     6    19    1
    17     7     8   ar
    18     8     9   ar
    19    19    20    1
    20    20    21    1
    21    21    22    2
    22    21    23    1
    23    23    27   ar
    24    23    24   ar
    25    24    25   ar
    26    24    29    1
    27    25    26   ar
    28    25    31    1
    29    26    27   ar
    30    26    28    1
    31    31    32    2
    32    31    33    1
    33    33    34    1
    34    34    35    1
    35    34    36    1
    36    27    30    1
    37    10    12    1
    38    10    13    1
#	Name:			ZINC10536068
#	Creating user name:	trannguyen
#	Creation time:		Wed Dec  7 14:36:19 2022


#	Modifying user name:	trannguyen
#	Modification time:	Wed Dec  7 14:36:19 2022

@<TRIPOS>MOLECULE
ZINC10536068
 36 39 0 0 0
SMALL
GASTEIGER

@<TRIPOS>ATOM
      1 C          11.0140  -29.4491   14.7054 C.3     1  UNL1        0.1322
      2 C          10.9199  -30.8129   14.0714 C.ar    1  UNL1        0.1524
      3 N           9.9536  -31.6328   14.4440 N.ar    1  UNL1       -0.2155
      4 C           9.8123  -32.8409   13.9242 C.ar    1  UNL1        0.1283
      5 C          10.7385  -33.2843   12.9327 C.ar    1  UNL1        0.0518
      6 C          10.7903  -34.5074   12.2523 C.ar    1  UNL1       -0.0049
      7 C          11.7699  -34.7301   11.3322 C.ar    1  UNL1        0.1026
      8 S          12.6992  -33.2066   11.3638 S.2     1  UNL1       -0.0617
      9 C          11.7475  -32.3499   12.5918 C.ar    1  UNL1        0.1146
     10 N          11.8076  -31.1634   13.1605 N.ar    1  UNL1       -0.2232
     11 C           9.7648  -35.5742   12.5371 C.3     1  UNL1        0.0319
     12 N           8.7852  -33.6639   14.3387 N.pl3   1  UNL1       -0.3425
     13 H           8.1498  -33.3517   15.0229 H       1  UNL1        0.1437
     14 H           8.6877  -34.5632   13.9502 H       1  UNL1        0.1437
     15 C          12.0032  -35.9262   10.5170 C.2     1  UNL1        0.3470
     16 O          12.6793  -36.8376   10.9541 O.2     1  UNL1       -0.2443
     17 O          11.4678  -36.0158    9.2823 O.3     1  UNL1       -0.4451
     18 C          10.6975  -37.2096    8.9828 C.3     1  UNL1        0.2089
     19 C           9.2042  -36.8849    9.0568 C.3     1  UNL1        0.0513
     20 S          10.9326  -28.1787   13.4188 S.3     1  UNL1       -0.0471
     21 C          13.7267  -25.8588   14.7842 C.ar    1  UNL1        0.2504
     22 N          12.6431  -25.2029   15.1222 N.ar    1  UNL1       -0.1065
     23 N          11.6071  -25.8575   14.7305 N.ar    1  UNL1       -0.1006
     24 C          11.9884  -26.9584   14.1264 C.ar    1  UNL1        0.2786
     25 O          13.3350  -26.9843   14.1466 O.2     1  UNL1       -0.4110
     26 C          17.7313  -24.6577   15.5387 C.ar    1  UNL1        0.0478
     27 C          17.1571  -24.4163   14.2953 C.ar    1  UNL1        0.0147
     28 C          15.8586  -24.8046   14.0474 C.ar    1  UNL1        0.0060
     29 C          15.1190  -25.4417   15.0464 C.ar    1  UNL1        0.0552
     30 C          15.6971  -25.6783   16.2957 C.ar    1  UNL1        0.0060
     31 C          16.9975  -25.2913   16.5356 C.ar    1  UNL1        0.0147
     32 N          19.0465  -24.2627   15.7866 N.pl3   1  UNL1       -0.3075
     33 C          20.7907  -25.1099   14.2962 C.3     1  UNL1        0.0232
     34 C          19.9263  -23.9045   14.6713 C.3     1  UNL1        0.0908
     35 C          19.5474  -24.2061   17.1622 C.3     1  UNL1        0.0908
     36 C          19.4483  -22.7706   17.6823 C.3     1  UNL1        0.0232
@<TRIPOS>BOND
     1    33    34    1
     2    34    32    1
     3    32    35    1
     4    32    26    1
     5    35    36    1
     6    26    31   ar
     7    26    27   ar
     8    27    28   ar
     9    28    29   ar
    10    29    30   ar
    11    29    21    1
    12    30    31   ar
    13    21    25   ar
    14    21    22   ar
    15    22    23   ar
    16    23    24   ar
    17    24    25   ar
    18    24    20    1
    19    20     1    1
    20     1     2    1
    21     2    10   ar
    22     2     3   ar
    23     3     4   ar
    24     4     5   ar
    25     4    12    1
    26     5     9   ar
    27     5     6   ar
    28     6     7   ar
    29     6    11    1
    30     7     8   ar
    31     7    15    1
    32     8     9   ar
    33     9    10   ar
    34    15    16    2
    35    15    17    1
    36    17    18    1
    37    18    19    1
    38    12    13    1
    39    12    14    1
#	Name:			ZINC10547456
#	Creating user name:	trannguyen
#	Creation time:		Wed Dec  7 14:36:19 2022


#	Modifying user name:	trannguyen
#	Modification time:	Wed Dec  7 14:36:19 2022

@<TRIPOS>MOLECULE
ZINC10547456
 41 43 0 0 0
SMALL
GASTEIGER

@<TRIPOS>ATOM
      1 C          21.7040  -25.8250   14.3531 C.3     1  UNL1        0.1776
      2 C          22.0284  -26.5938   13.0982 C.2     1  UNL1        0.2464
      3 O          21.1349  -27.0714   12.4314 O.2     1  UNL1       -0.2729
      4 N          23.3116  -26.7508   12.7169 N.am    1  UNL1       -0.2825
      5 H          24.0396  -26.4152   13.2885 H       1  UNL1        0.1549
      6 C          23.6092  -27.3909   11.5080 C.ar    1  UNL1        0.0506
      7 C          23.1817  -28.6926   11.2907 C.ar    1  UNL1        0.0192
      8 C          23.4720  -29.3318   10.0843 C.ar    1  UNL1        0.0545
      9 C          24.2016  -28.6651    9.1023 C.ar    1  UNL1        0.0091
     10 C          24.6342  -27.3597    9.3260 C.ar    1  UNL1        0.0545
     11 C          24.3357  -26.7242   10.5325 C.ar    1  UNL1        0.0192
     12 C          25.4084  -26.6480    8.2863 C.2     1  UNL1        0.2428
     13 O          26.5748  -26.3678    8.4823 O.2     1  UNL1       -0.2704
     14 N          24.8207  -26.3100    7.1216 N.am    1  UNL1       -0.3253
     15 H          23.8760  -26.5369    6.9629 H       1  UNL1        0.1453
     16 H          25.3361  -25.8363    6.4294 H       1  UNL1        0.1453
     17 C          23.0111  -30.7174    9.8513 C.2     1  UNL1        0.2428
     18 O          22.0901  -31.1693   10.5031 O.2     1  UNL1       -0.2704
     19 N          23.6125  -31.4794    8.9162 N.am    1  UNL1       -0.3253
     20 H          24.3586  -31.1133    8.3883 H       1  UNL1        0.1453
     21 H          23.3058  -32.4019    8.7611 H       1  UNL1        0.1453
     22 N          21.2780  -24.4689   13.9985 N.pl3   1  UNL1       -0.2957
     23 C          15.8339  -23.4312   12.7973 C.3     1  UNL1        0.0307
     24 C          17.2807  -23.7068   13.1165 C.ar    1  UNL1       -0.0257
     25 C          17.6583  -23.9913   14.4162 C.ar    1  UNL1       -0.0033
     26 C          18.9823  -24.2499   14.7112 C.ar    1  UNL1        0.0142
     27 C          19.9370  -24.2131   13.7026 C.ar    1  UNL1        0.0481
     28 C          19.5543  -23.9270   12.3985 C.ar    1  UNL1        0.0100
     29 C          18.2274  -23.6750   12.1094 C.ar    1  UNL1       -0.0246
     30 C          17.8112  -23.3645   10.6946 C.3     1  UNL1        0.0307
     31 C          22.2583  -23.3812   13.9543 C.3     1  UNL1        0.1211
     32 C          21.6693  -22.1481   14.5895 C.ar    1  UNL1        0.0316
     33 C          21.4281  -21.0238   13.8236 C.ar    1  UNL1        0.0004
     34 C          20.8833  -19.8939   14.4048 C.ar    1  UNL1       -0.0001
     35 C          20.5882  -19.8822   15.7557 C.ar    1  UNL1        0.0031
     36 C          20.8322  -21.0018   16.5268 C.ar    1  UNL1        0.0366
     37 C          21.3740  -22.1390   15.9448 C.ar    1  UNL1        0.1366
     38 O          21.6156  -23.2417   16.7014 O.3     1  UNL1       -0.4709
     39 C          20.8684  -23.3738   17.9125 C.3     1  UNL1        0.2318
     40 C          21.0344  -24.7699   18.4553 C.2     1  UNL1        0.0207
     41 C          20.4445  -25.7778   17.8619 C.2     1  UNL1       -0.0011
@<TRIPOS>BOND
     1    23    24    1
     2    24    29   ar
     3    24    25   ar
     4    25    26   ar
     5    26    27   ar
     6    27    28   ar
     7    27    22    1
     8    28    29   ar
     9    29    30    1
    10    22    31    1
    11    22     1    1
    12    31    32    1
    13    32    37   ar
    14    32    33   ar
    15    33    34   ar
    16    34    35   ar
    17    35    36   ar
    18    36    37   ar
    19    37    38    1
    20    38    39    1
    21    39    40    1
    22    40    41    2
    23     1     2    1
    24     2     3    2
    25     2     4   am
    26     4     6    1
    27     6    11   ar
    28     6     7   ar
    29     7     8   ar
    30     8     9   ar
    31     8    17    1
    32     9    10   ar
    33    10    11   ar
    34    10    12    1
    35    12    13    2
    36    12    14   am
    37    17    18    2
    38    17    19   am
    39     4     5    1
    40    14    15    1
    41    14    16    1
    42    19    20    1
    43    19    21    1
#	Name:			ZINC10626372
#	Creating user name:	trannguyen
#	Creation time:		Wed Dec  7 14:36:20 2022


#	Modifying user name:	trannguyen
#	Modification time:	Wed Dec  7 14:36:20 2022

@<TRIPOS>MOLECULE
ZINC10626372
 40 43 0 0 0
SMALL
GASTEIGER

@<TRIPOS>ATOM
      1 C          15.7172  -24.3388   13.5243 C.2     1  UNL1        0.2664
      2 O          14.9614  -23.6062   14.1267 O.2     1  UNL1       -0.2709
      3 N          15.7024  -25.6653   13.7622 N.am    1  UNL1       -0.2810
      4 H          16.2679  -26.2678   13.2269 H       1  UNL1        0.1550
      5 C          14.8861  -26.1845   14.7666 C.ar    1  UNL1        0.0504
      6 C          15.4056  -26.4054   16.0382 C.ar    1  UNL1        0.0148
      7 C          14.6025  -26.9177   17.0320 C.ar    1  UNL1        0.0058
      8 C          13.2641  -27.2163   16.7623 C.ar    1  UNL1        0.0538
      9 C          12.7472  -26.9989   15.4821 C.ar    1  UNL1        0.0058
     10 C          13.5541  -26.4805   14.4945 C.ar    1  UNL1        0.0148
     11 C          12.4002  -27.7656   17.8252 C.2     1  UNL1        0.2496
     12 O          12.8266  -28.6262   18.5712 O.2     1  UNL1       -0.2698
     13 N          11.1388  -27.3134   17.9693 N.am    1  UNL1       -0.2780
     14 H          10.7727  -26.6629   17.3273 H       1  UNL1        0.1553
     15 C          10.3487  -27.7688   19.0323 C.ar    1  UNL1        0.0850
     16 C          10.3977  -27.1257   20.2607 C.ar    1  UNL1        0.0178
     17 C           9.6132  -27.5737   21.3065 C.ar    1  UNL1        0.0015
     18 C           8.7865  -28.6689   21.1354 C.ar    1  UNL1        0.0032
     19 C           8.7362  -29.3180   19.9157 C.ar    1  UNL1        0.0382
     20 C           9.5156  -28.8721   18.8607 C.ar    1  UNL1        0.1520
     21 O           9.4679  -29.5100   17.6607 O.3     1  UNL1       -0.4702
     22 C          10.1060  -30.7860   17.5785 C.3     1  UNL1        0.2525
     23 C          15.9724  -23.6561   11.1541 C.3     1  UNL1        0.0575
     24 C          16.6730  -23.7658   12.5097 C.3     1  UNL1        0.2443
     25 O          17.8288  -24.6363   12.3881 O.3     1  UNL1       -0.4428
     26 C          19.0378  -24.0588   12.4693 C.2     1  UNL1        0.3173
     27 O          19.2631  -23.0405   11.8592 O.2     1  UNL1       -0.2501
     28 C          20.1141  -24.6805   13.3214 C.3     1  UNL1        0.1099
     29 C          19.6933  -24.6300   14.7916 C.3     1  UNL1        0.0164
     30 C          20.8958  -24.2388   15.6530 C.3     1  UNL1        0.0285
     31 C          21.3553  -22.8542   15.2750 C.ar    1  UNL1       -0.0038
     32 C          22.2485  -22.5415   14.3230 C.ar    1  UNL1        0.0681
     33 N          22.4118  -21.1841   14.2642 N.ar    1  UNL1       -0.3523
     34 C          21.6135  -20.5754   15.2065 C.ar    1  UNL1        0.0563
     35 C          20.9167  -21.5948   15.8810 C.ar    1  UNL1        0.0130
     36 C          20.0222  -21.2691   16.9021 C.ar    1  UNL1        0.0012
     37 C          19.8277  -19.9597   17.2417 C.ar    1  UNL1        0.0001
     38 C          20.5130  -18.9506   16.5796 C.ar    1  UNL1        0.0015
     39 C          21.4003  -19.2496   15.5687 C.ar    1  UNL1        0.0170
     40 H          23.0107  -20.7130   13.6409 H       1  UNL1        0.1660
@<TRIPOS>BOND
     1    23    24    1
     2    24     1    1
     3    24    25    1
     4     1     2    2
     5     1     3   am
     6     3     5    1
     7     5    10   ar
     8     5     6   ar
     9     6     7   ar
    10     7     8   ar
    11     8     9   ar
    12     8    11    1
    13     9    10   ar
    14    11    12    2
    15    11    13   am
    16    13    15    1
    17    15    20   ar
    18    15    16   ar
    19    16    17   ar
    20    17    18   ar
    21    18    19   ar
    22    19    20   ar
    23    20    21    1
    24    21    22    1
    25    25    26    1
    26    26    27    2
    27    26    28    1
    28    28    29    1
    29    29    30    1
    30    30    31    1
    31    31    35   ar
    32    31    32   ar
    33    32    33   ar
    34    33    34   ar
    35    34    39   ar
    36    34    35   ar
    37    35    36   ar
    38    36    37   ar
    39    37    38   ar
    40    38    39   ar
    41     3     4    1
    42    13    14    1
    43    33    40    1
#	Name:			ZINC10660501
#	Creating user name:	trannguyen
#	Creation time:		Wed Dec  7 14:36:19 2022


#	Modifying user name:	trannguyen
#	Modification time:	Wed Dec  7 14:36:19 2022

@<TRIPOS>MOLECULE
ZINC10660501
 38 40 0 0 0
SMALL
GASTEIGER

@<TRIPOS>ATOM
      1 N          20.0536  -23.4123   15.6429 N.am    1  UNL1       -0.2757
      2 C          20.7756  -24.2342   16.4300 C.2     1  UNL1        0.2711
      3 O          21.7620  -23.8172   16.9989 O.2     1  UNL1       -0.2707
      4 H          19.2528  -23.7509   15.1811 H       1  UNL1        0.1554
      5 C          21.5961  -19.3084   13.1993 C.3     1  UNL1        0.0320
      6 C          21.1673  -20.0945   14.4115 C.ar    1  UNL1       -0.0035
      7 C          20.8242  -21.4347   14.3132 C.ar    1  UNL1        0.0919
      8 C          20.4372  -22.0949   15.4842 C.ar    1  UNL1        0.0869
      9 S          20.5504  -20.8507   16.6856 S.2     1  UNL1       -0.0678
     10 C          21.1034  -19.5111   15.6474 C.ar    1  UNL1        0.0800
     11 C          21.4079  -18.1288   16.0229 C.2     1  UNL1        0.2485
     12 O          20.5171  -17.3005   16.0697 O.2     1  UNL1       -0.2698
     13 N          22.6744  -17.7737   16.3166 N.am    1  UNL1       -0.3249
     14 H          23.3948  -18.4435   16.2788 H       1  UNL1        0.1453
     15 H          22.8791  -16.8444   16.5691 H       1  UNL1        0.1453
     16 C          20.8661  -22.1361   13.0252 C.2     1  UNL1        0.3427
     17 O          21.5661  -21.7135   12.1252 O.2     1  UNL1       -0.2448
     18 O          20.1282  -23.2494   12.8395 O.3     1  UNL1       -0.4426
     19 C          18.8293  -23.0823   12.2122 C.3     1  UNL1        0.2407
     20 C          17.9558  -24.3012   12.5156 C.3     1  UNL1        0.1895
     21 O          16.9898  -23.9590   13.5114 O.3     1  UNL1       -0.3471
     22 C          15.9117  -23.1575   13.0242 C.3     1  UNL1        0.1743
     23 C          20.3570  -25.6715   16.6032 C.3     1  UNL1        0.2930
     24 O          21.1906  -26.5218   15.7722 O.3     1  UNL1       -0.4352
     25 C          20.8346  -26.6515   14.4791 C.2     1  UNL1        0.3446
     26 O          19.6612  -26.7467   14.1786 O.2     1  UNL1       -0.2448
     27 C          21.8696  -26.6841   13.4293 C.ar    1  UNL1        0.1092
     28 C          21.8783  -27.7148   12.5024 C.ar    1  UNL1        0.0095
     29 C          22.8615  -27.7371   11.5035 C.ar    1  UNL1        0.0004
     30 C          22.8973  -28.7652   10.5435 C.ar    1  UNL1        0.0000
     31 C          23.8677  -28.7628    9.5897 C.ar    1  UNL1        0.0000
     32 C          24.8302  -27.7552    9.5480 C.ar    1  UNL1        0.0000
     33 C          24.8276  -26.7446   10.4595 C.ar    1  UNL1        0.0001
     34 C          23.8415  -26.7115   11.4608 C.ar    1  UNL1        0.0030
     35 C          23.8142  -25.6811   12.4150 C.ar    1  UNL1        0.0368
     36 C          22.8486  -25.6690   13.3780 C.ar    1  UNL1        0.1398
     37 O          22.8292  -24.6702   14.2969 O.3     1  UNL1       -0.5053
     38 H          22.1679  -24.6571   14.9607 H       1  UNL1        0.2922
@<TRIPOS>BOND
     1     5     6    1
     2     6    10   ar
     3     6     7   ar
     4     7     8   ar
     5     7    16    1
     6     8     9   ar
     7     8     1    1
     8     9    10   ar
     9    10    11    1
    10    11    12    2
    11    11    13   am
    12     1     2   am
    13     2     3    2
    14     2    23    1
    15    23    24    1
    16    24    25    1
    17    25    26    2
    18    25    27    1
    19    27    36   ar
    20    27    28   ar
    21    28    29   ar
    22    29    34   ar
    23    29    30   ar
    24    30    31   ar
    25    31    32   ar
    26    32    33   ar
    27    33    34   ar
    28    34    35   ar
    29    35    36   ar
    30    36    37    1
    31    16    17    2
    32    16    18    1
    33    18    19    1
    34    19    20    1
    35    20    21    1
    36    21    22    1
    37    13    14    1
    38    13    15    1
    39     1     4    1
    40    37    38    1
#	Name:			ZINC10729513
#	Creating user name:	trannguyen
#	Creation time:		Wed Dec  7 14:36:19 2022


#	Modifying user name:	trannguyen
#	Modification time:	Wed Dec  7 14:36:19 2022

@<TRIPOS>MOLECULE
ZINC10729513
 39 41 0 0 0
SMALL
GASTEIGER

@<TRIPOS>ATOM
      1 C          18.2610  -23.5054   12.0435 C.3     1  UNL1        0.2737
      2 C          19.3974  -23.8986   12.9517 C.ar    1  UNL1        0.1889
      3 N          19.6846  -25.1760   13.1330 N.ar    1  UNL1       -0.1951
      4 C          20.6878  -25.5273   13.9340 C.ar    1  UNL1        0.2173
      5 N          21.4009  -24.5920   14.5520 N.ar    1  UNL1       -0.1810
      6 C          21.1092  -23.3090   14.3674 C.ar    1  UNL1        0.2243
      7 N          20.1074  -22.9654   13.5606 N.ar    1  UNL1       -0.1947
      8 N          20.9865  -26.8612   14.1229 N.pl3   1  UNL1       -0.3273
      9 H          20.4576  -27.5537   13.6647 H       1  UNL1        0.1452
     10 H          21.7284  -27.1203   14.7159 H       1  UNL1        0.1452
     11 N          21.8473  -22.3331   15.0074 N.pl3   1  UNL1       -0.2801
     12 H          22.8310  -22.3609   14.9774 H       1  UNL1        0.1552
     13 C          21.1965  -21.3037   15.6995 C.ar    1  UNL1        0.0849
     14 C          20.5429  -21.5731   16.8932 C.ar    1  UNL1        0.0178
     15 C          19.9052  -20.5548   17.5764 C.ar    1  UNL1        0.0015
     16 C          19.9085  -19.2689   17.0684 C.ar    1  UNL1        0.0032
     17 C          20.5534  -18.9939   15.8766 C.ar    1  UNL1        0.0382
     18 C          21.1990  -20.0079   15.1881 C.ar    1  UNL1        0.1520
     19 O          21.8333  -19.7391   14.0156 O.3     1  UNL1       -0.4702
     20 C          21.7050  -18.4135   13.4976 C.3     1  UNL1        0.2525
     21 O          17.1438  -24.3647   12.2789 O.3     1  UNL1       -0.4370
     22 C          16.0788  -23.8263   12.9093 C.2     1  UNL1        0.3418
     23 O          15.5602  -22.8158   12.4728 O.2     1  UNL1       -0.2449
     24 C          15.4191  -25.7816   14.1303 C.2     1  UNL1        0.0080
     25 C          15.5655  -24.4368   14.0777 C.2     1  UNL1        0.0819
     26 N          14.7400  -27.4535   17.2876 N.ar    1  UNL1       -0.3338
     27 C          15.6053  -26.9745   16.3603 C.ar    1  UNL1        0.0373
     28 C          14.8873  -26.4141   15.3409 C.ar    1  UNL1        0.0192
     29 C          13.4654  -26.5760   15.7096 C.ar    1  UNL1        0.0883
     30 C          13.4600  -27.2173   16.9142 C.ar    1  UNL1        0.0433
     31 C          12.2318  -27.6047   17.6967 C.3     1  UNL1        0.0502
     32 C          17.1082  -27.0527   16.4373 C.3     1  UNL1        0.0500
     33 C          15.2017  -27.1123   19.6649 C.3     1  UNL1        0.0265
     34 C          15.1355  -28.1306   18.5251 C.3     1  UNL1        0.1055
     35 C          12.2956  -26.1365   14.9363 C.2     1  UNL1        0.3423
     36 O          11.9121  -24.9856   15.0153 O.2     1  UNL1       -0.2449
     37 O          11.6476  -27.0095   14.1392 O.3     1  UNL1       -0.4454
     38 C          12.1916  -28.3530   14.0536 C.3     1  UNL1        0.2089
     39 C          12.7412  -28.5918   12.6457 C.3     1  UNL1        0.0513
@<TRIPOS>BOND
     1    33    34    1
     2    34    26    1
     3    26    30   ar
     4    26    27   ar
     5    27    28   ar
     6    27    32    1
     7    28    29   ar
     8    28    24    1
     9    29    30   ar
    10    29    35    1
    11    30    31    1
    12    35    36    2
    13    35    37    1
    14    37    38    1
    15    38    39    1
    16    24    25    2
    17    25    22    1
    18    22    23    2
    19    22    21    1
    20    21     1    1
    21     1     2    1
    22     2     7   ar
    23     2     3   ar
    24     3     4   ar
    25     4     5   ar
    26     4     8    1
    27     5     6   ar
    28     6     7   ar
    29     6    11    1
    30    11    13    1
    31    13    18   ar
    32    13    14   ar
    33    14    15   ar
    34    15    16   ar
    35    16    17   ar
    36    17    18   ar
    37    18    19    1
    38    19    20    1
    39    11    12    1
    40     8     9    1
    41     8    10    1
#	Name:			ZINC10823448
#	Creating user name:	trannguyen
#	Creation time:		Wed Dec  7 14:36:20 2022


#	Modifying user name:	trannguyen
#	Modification time:	Wed Dec  7 14:36:20 2022

@<TRIPOS>MOLECULE
ZINC10823448
 40 42 0 0 0
SMALL
GASTEIGER

@<TRIPOS>ATOM
      1 C          21.8902  -22.8041   14.4120 C.ar    1  UNL1        0.1936
      2 N          22.8282  -23.5749   14.9116 N.ar    1  UNL1       -0.1224
      3 N          22.6820  -24.7765   14.4794 N.ar    1  UNL1       -0.1323
      4 C          21.6562  -24.8421   13.6787 C.ar    1  UNL1        0.1531
      5 N          21.1150  -23.5882   13.6069 N.ar    1  UNL1       -0.2892
      6 S          21.6770  -21.0818   14.7167 S.3     1  UNL1       -0.0672
      7 C          20.2488  -21.1334   15.8273 C.3     1  UNL1        0.1312
      8 C          20.1251  -19.7968   16.5615 C.3     1  UNL1        0.0218
      9 N          19.5577  -23.2670   16.8706 N.am    1  UNL1       -0.2832
     10 C          20.4326  -22.2426   16.8307 C.2     1  UNL1        0.2362
     11 O          21.3678  -22.2135   17.6025 O.2     1  UNL1       -0.2739
     12 H          18.7613  -23.2571   16.2917 H       1  UNL1        0.1549
     13 C          20.2231  -26.4787   19.4454 C.ar    1  UNL1        0.0504
     14 C          20.8747  -26.4244   18.2203 C.ar    1  UNL1        0.0159
     15 C          20.6498  -25.3642   17.3654 C.ar    1  UNL1        0.0159
     16 C          19.7813  -24.3459   17.7356 C.ar    1  UNL1        0.0504
     17 C          19.1342  -24.3972   18.9633 C.ar    1  UNL1        0.0159
     18 C          19.3542  -25.4606   19.8155 C.ar    1  UNL1        0.0159
     19 C          19.6438  -28.6388   20.2609 C.2     1  UNL1        0.2261
     20 O          18.6806  -28.6456   19.5236 O.2     1  UNL1       -0.2748
     21 N          20.4468  -27.5576   20.3105 N.am    1  UNL1       -0.2839
     22 H          21.1906  -27.5260   20.9546 H       1  UNL1        0.1549
     23 C          19.0381  -29.8203   22.3552 C.3     1  UNL1        0.0101
     24 C          19.9425  -29.8394   21.1213 C.3     1  UNL1        0.0854
     25 C          19.9460  -23.1727   12.8277 C.3     1  UNL1        0.1356
     26 C          18.6897  -23.5040   13.5914 C.2     1  UNL1       -0.0017
     27 C          17.5246  -23.1142   13.1365 C.2     1  UNL1       -0.0029
     28 C          21.1584  -26.0720   12.9641 C.3     1  UNL1        0.1510
     29 C          22.3221  -26.7910   12.3316 C.2     1  UNL1        0.2338
     30 O          22.2759  -27.9917   12.1667 O.2     1  UNL1       -0.2743
     31 N          23.4140  -26.0998   11.9493 N.am    1  UNL1       -0.2835
     32 H          23.4852  -25.1394   12.1539 H       1  UNL1        0.1549
     33 C          24.4464  -26.7470   11.2616 C.ar    1  UNL1        0.0533
     34 C          25.5627  -27.2032   11.9515 C.ar    1  UNL1        0.0149
     35 C          26.5791  -27.8473   11.2735 C.ar    1  UNL1        0.0044
     36 C          26.4941  -28.0295    9.9060 C.ar    1  UNL1        0.0370
     37 C          25.3842  -27.5709    9.2109 C.ar    1  UNL1        0.1400
     38 C          24.3593  -26.9291    9.8888 C.ar    1  UNL1        0.0515
     39 O          25.3021  -27.7504    7.8663 O.3     1  UNL1       -0.4714
     40 C          24.8405  -26.6423    7.0909 C.3     1  UNL1        0.2525
@<TRIPOS>BOND
     1    23    24    1
     2    24    19    1
     3    19    20    2
     4    19    21   am
     5    21    13    1
     6    13    18   ar
     7    13    14   ar
     8    14    15   ar
     9    15    16   ar
    10    16    17   ar
    11    16     9    1
    12    17    18   ar
    13     9    10   am
    14    10    11    2
    15    10     7    1
    16     7     8    1
    17     7     6    1
    18     6     1    1
    19     1     5   ar
    20     1     2   ar
    21     2     3   ar
    22     3     4   ar
    23     4     5   ar
    24     4    28    1
    25     5    25    1
    26    25    26    1
    27    26    27    2
    28    28    29    1
    29    29    30    2
    30    29    31   am
    31    31    33    1
    32    33    38   ar
    33    33    34   ar
    34    34    35   ar
    35    35    36   ar
    36    36    37   ar
    37    37    38   ar
    38    37    39    1
    39    39    40    1
    40    21    22    1
    41     9    12    1
    42    31    32    1
#	Name:			ZINC11298007
#	Creating user name:	trannguyen
#	Creation time:		Wed Dec  7 14:36:20 2022


#	Modifying user name:	trannguyen
#	Modification time:	Wed Dec  7 14:36:20 2022

@<TRIPOS>MOLECULE
ZINC11298007
 38 40 0 0 0
SMALL
GASTEIGER

@<TRIPOS>ATOM
      1 C          18.2353  -25.3168   15.6766 C.ar    1  UNL1        0.1724
      2 C          19.1645  -26.2738   16.0643 C.ar    1  UNL1        0.0400
      3 C          19.8895  -26.9593   15.1155 C.ar    1  UNL1        0.0033
      4 C          19.6908  -26.6914   13.7545 C.ar    1  UNL1        0.0040
      5 C          18.7496  -25.7289   13.3649 C.ar    1  UNL1        0.0401
      6 C          18.0313  -25.0438   14.3240 C.ar    1  UNL1        0.1722
      7 C          20.4613  -27.4190   12.7414 C.2     1  UNL1        0.0135
      8 C          21.7894  -27.1559   12.5754 C.2     1  UNL1        0.1043
      9 C          22.6027  -27.9983   11.6734 C.ar    1  UNL1        0.1776
     10 N          22.1591  -29.1978   11.3015 N.ar    1  UNL1       -0.1941
     11 C          22.8913  -29.9542   10.4905 C.ar    1  UNL1        0.2174
     12 N          24.0661  -29.5140   10.0504 N.ar    1  UNL1       -0.1811
     13 C          24.5100  -28.3170   10.4209 C.ar    1  UNL1        0.2240
     14 N          23.7771  -27.5563   11.2276 N.ar    1  UNL1       -0.1937
     15 N          22.4320  -31.1976   10.1052 N.pl3   1  UNL1       -0.3273
     16 H          21.5621  -31.5237   10.4311 H       1  UNL1        0.1452
     17 H          22.9743  -31.7582    9.5046 H       1  UNL1        0.1452
     18 N          25.7301  -27.8619    9.9634 N.pl3   1  UNL1       -0.2746
     19 C          26.9634  -28.5433   10.3644 C.3     1  UNL1        0.1151
     20 C          25.7918  -26.6972    9.0768 C.3     1  UNL1        0.1151
     21 C          22.3958  -26.0634   13.2752 C.1     1  UNL1        0.1035
     22 N          22.8768  -25.1968   13.8303 N.1     1  UNL1       -0.1907
     23 O          17.5229  -24.6450   16.6175 O.3     1  UNL1       -0.4684
     24 C          17.8373  -24.9155   17.9850 C.3     1  UNL1        0.2526
     25 C          18.4264  -23.6599   18.6308 C.3     1  UNL1        0.2525
     26 O          19.8064  -23.5453   18.2779 O.3     1  UNL1       -0.4714
     27 C          20.8682  -20.3598   15.8764 C.ar    1  UNL1        0.1388
     28 C          21.1226  -21.6579   15.4592 C.ar    1  UNL1        0.0400
     29 C          20.7670  -22.7238   16.2626 C.ar    1  UNL1        0.0400
     30 C          20.1564  -22.4960   17.4869 C.ar    1  UNL1        0.1389
     31 C          19.8976  -21.1981   17.9020 C.ar    1  UNL1        0.0400
     32 C          20.2571  -20.1321   17.1005 C.ar    1  UNL1        0.0400
     33 O          21.2182  -19.3106   15.0855 O.3     1  UNL1       -0.4755
     34 C          21.7972  -18.2950   12.9704 C.3     1  UNL1        0.0512
     35 C          21.3071  -19.5583   13.6809 C.3     1  UNL1        0.2055
     36 O          17.1200  -24.1062   13.9498 O.3     1  UNL1       -0.4724
     37 C          17.4174  -23.3436   12.7785 C.3     1  UNL1        0.2057
     38 C          18.4804  -22.2941   13.1096 C.3     1  UNL1        0.0512
@<TRIPOS>BOND
     1    34    35    1
     2    35    33    1
     3    33    27    1
     4    27    32   ar
     5    27    28   ar
     6    28    29   ar
     7    29    30   ar
     8    30    31   ar
     9    30    26    1
    10    31    32   ar
    11    26    25    1
    12    25    24    1
    13    24    23    1
    14    23     1    1
    15     1     6   ar
    16     1     2   ar
    17     2     3   ar
    18     3     4   ar
    19     4     5   ar
    20     4     7    1
    21     5     6   ar
    22     6    36    1
    23    36    37    1
    24    37    38    1
    25     7     8    2
    26     8    21    1
    27     8     9    1
    28    21    22    3
    29     9    14   ar
    30     9    10   ar
    31    10    11   ar
    32    11    12   ar
    33    11    15    1
    34    12    13   ar
    35    13    14   ar
    36    13    18    1
    37    18    19    1
    38    18    20    1
    39    15    16    1
    40    15    17    1
#	Name:			ZINC11305343
#	Creating user name:	trannguyen
#	Creation time:		Wed Dec  7 14:36:20 2022


#	Modifying user name:	trannguyen
#	Modification time:	Wed Dec  7 14:36:20 2022

@<TRIPOS>MOLECULE
ZINC11305343
 40 42 0 0 0
SMALL
GASTEIGER

@<TRIPOS>ATOM
      1 C          18.9641  -26.1519   16.4378 C.ar    1  UNL1        0.1936
      2 N          19.3887  -25.8354   15.2365 N.ar    1  UNL1       -0.1224
      3 N          18.4137  -25.3778   14.5353 N.ar    1  UNL1       -0.1310
      4 C          17.3182  -25.3747   15.2408 C.ar    1  UNL1        0.1644
      5 N          17.6280  -25.8731   16.4760 N.ar    1  UNL1       -0.2882
      6 S          19.9335  -26.8174   17.7501 S.3     1  UNL1       -0.0672
      7 C          20.0228  -25.3737   18.8381 C.3     1  UNL1        0.1312
      8 C          21.0363  -25.6376   19.9535 C.3     1  UNL1        0.0218
      9 N          19.5304  -23.3564   17.4940 N.am    1  UNL1       -0.2832
     10 C          20.4551  -24.1700   18.0412 C.2     1  UNL1        0.2362
     11 O          21.6353  -23.9333   17.8921 O.2     1  UNL1       -0.2739
     12 H          18.5748  -23.5849   17.5567 H       1  UNL1        0.1549
     13 C          20.7159  -19.8746   15.5374 C.ar    1  UNL1       -0.0224
     14 C          20.3900  -19.8344   16.8807 C.ar    1  UNL1       -0.0030
     15 C          19.9964  -20.9868   17.5322 C.ar    1  UNL1        0.0143
     16 C          19.9284  -22.1869   16.8369 C.ar    1  UNL1        0.0503
     17 C          20.2618  -22.2252   15.4893 C.ar    1  UNL1        0.0143
     18 C          20.6493  -21.0681   14.8423 C.ar    1  UNL1       -0.0030
     19 C          22.3658  -18.0235   15.5355 C.3     1  UNL1        0.0047
     20 C          21.1441  -18.6150   14.8295 C.3     1  UNL1        0.0224
     21 C          21.5022  -18.9421   13.3785 C.3     1  UNL1        0.0047
     22 C          16.7165  -26.0649   17.6068 C.3     1  UNL1        0.1357
     23 C          16.1322  -27.4528   17.5513 C.2     1  UNL1       -0.0017
     24 C          14.8716  -27.6454   17.8514 C.2     1  UNL1       -0.0029
     25 CA         15.9599  -24.9134   14.7790 C.3     1  UNL1        0.1605
     26 N          15.1106  -26.0785   14.5192 N.am    1  UNL1       -0.2940
     27 C          13.7781  -25.9957   14.7035 C.2     1  UNL1        0.2462
     28 O          13.2808  -24.9539   15.0854 O.2     1  UNL1       -0.2701
     29 H          15.5133  -26.9220   14.2101 H       1  UNL1        0.1502
     30 C          12.9224  -27.1696   14.4418 C.ar    1  UNL1        0.0536
     31 C          13.0120  -27.8434   13.2210 C.ar    1  UNL1        0.0076
     32 C          12.2151  -28.9408   12.9823 C.ar    1  UNL1        0.0370
     33 C          11.3153  -29.3722   13.9498 C.ar    1  UNL1        0.1387
     34 C          11.2198  -28.7017   15.1637 C.ar    1  UNL1        0.0370
     35 C          12.0166  -27.6065   15.4119 C.ar    1  UNL1        0.0076
     36 O          10.5283  -30.4512   13.7090 O.3     1  UNL1       -0.4714
     37 C          10.7775  -31.6229   14.4883 C.3     1  UNL1        0.2525
     38 C          16.1086  -24.0943   13.4953 C.3     1  UNL1        0.1644
     39 O          15.0991  -23.0837   13.4555 O.3     1  UNL1       -0.3798
     40 H          14.2234  -23.5005   13.4735 H       1  UNL1        0.2105
@<TRIPOS>BOND
     1    19    20    1
     2    20    21    1
     3    20    13    1
     4    13    18   ar
     5    13    14   ar
     6    14    15   ar
     7    15    16   ar
     8    16    17   ar
     9    16     9    1
    10    17    18   ar
    11     9    10   am
    12    10    11    2
    13    10     7    1
    14     7     8    1
    15     7     6    1
    16     6     1    1
    17     1     5   ar
    18     1     2   ar
    19     2     3   ar
    20     3     4   ar
    21     4     5   ar
    22     4    25    1
    23     5    22    1
    24    22    23    1
    25    23    24    2
    26    25    38    1
    27    25    26    1
    28    38    39    1
    29    26    27   am
    30    27    28    2
    31    27    30    1
    32    30    35   ar
    33    30    31   ar
    34    31    32   ar
    35    32    33   ar
    36    33    34   ar
    37    33    36    1
    38    34    35   ar
    39    36    37    1
    40     9    12    1
    41    39    40    1
    42    26    29    1
#	Name:			ZINC11387024
#	Creating user name:	trannguyen
#	Creation time:		Wed Dec  7 14:36:19 2022


#	Modifying user name:	trannguyen
#	Modification time:	Wed Dec  7 14:36:19 2022

@<TRIPOS>MOLECULE
ZINC11387024
 36 38 0 0 0
SMALL
GASTEIGER

@<TRIPOS>ATOM
      1 N          14.6410  -24.3862   14.8248 N.am    1  UNL1       -0.2225
      2 C          15.3804  -24.4555   13.7001 C.2     1  UNL1        0.2831
      3 O          15.6137  -25.5323   13.1931 O.2     1  UNL1       -0.2695
      4 H          14.4516  -23.5121   15.2363 H       1  UNL1        0.1736
      5 C          11.8028  -27.1376   17.2501 C.3     1  UNL1       -0.0082
      6 C          12.7860  -27.2674   16.0850 C.3     1  UNL1        0.0077
      7 C          12.8629  -25.9700   15.3050 C.2     1  UNL1        0.2304
      8 O          11.9616  -25.4181   14.7111 O.2     1  UNL1       -0.2744
      9 N          14.1420  -25.5580   15.4083 N.am    1  UNL1       -0.1716
     10 C          14.8761  -26.4061   16.1376 C.2     1  UNL1        0.1546
     11 O          16.0584  -26.2477   16.3710 O.2     1  UNL1       -0.2952
     12 N          14.1595  -27.4533   16.5841 N.am    1  UNL1       -0.6079
     13 C          12.3879  -28.4063   15.1818 C.ar    1  UNL1       -0.0330
     14 C          13.3020  -28.9278   14.2851 C.ar    1  UNL1       -0.0023
     15 C          12.9414  -29.9755   13.4599 C.ar    1  UNL1        0.0365
     16 C          11.6572  -30.4964   13.5234 C.ar    1  UNL1        0.1387
     17 C          10.7402  -29.9676   14.4201 C.ar    1  UNL1        0.0365
     18 C          11.1075  -28.9240   15.2473 C.ar    1  UNL1       -0.0023
     19 O          11.2981  -31.5228   12.7083 O.3     1  UNL1       -0.4714
     20 C          12.3246  -32.0960   11.8961 C.3     1  UNL1        0.2525
     21 C          15.9171  -23.1949   13.0724 C.3     1  UNL1        0.2942
     22 O          16.8349  -23.5348   12.0311 O.3     1  UNL1       -0.4352
     23 C          18.0721  -23.0023   12.1072 C.2     1  UNL1        0.3419
     24 O          18.7983  -23.0096   11.1317 O.2     1  UNL1       -0.2449
     25 C          18.5399  -22.4163   13.3627 C.2     1  UNL1        0.0819
     26 C          19.3477  -23.1251   14.1783 C.2     1  UNL1        0.0068
     27 C          19.8186  -22.5353   15.4420 C.ar    1  UNL1        0.0062
     28 C          20.5182  -21.3250   15.4335 C.ar    1  UNL1        0.0371
     29 C          20.9541  -20.7722   16.6255 C.ar    1  UNL1        0.1418
     30 C          20.7075  -21.4227   17.8263 C.ar    1  UNL1        0.0737
     31 C          20.0185  -22.6274   17.8400 C.ar    1  UNL1        0.1418
     32 C          19.5729  -23.1863   16.6545 C.ar    1  UNL1        0.0371
     33 O          19.7803  -23.2593   19.0194 O.3     1  UNL1       -0.4713
     34 C          19.1504  -24.5403   18.9536 C.3     1  UNL1        0.2525
     35 O          21.6295  -19.5928   16.6192 O.3     1  UNL1       -0.4713
     36 C          21.1881  -18.5976   15.6935 C.3     1  UNL1        0.2525
@<TRIPOS>UNITY_ATOM_ATTR
12 1
charge -1
@<TRIPOS>BOND
     1     5     6    1
     2     6    12    1
     3     6     7    1
     4     6    13    1
     5     7     8    2
     6     7     9   am
     7     9    10   am
     8     9     1    1
     9    10    11    2
    10    10    12    1
    11     1     2   am
    12     2     3    2
    13     2    21    1
    14    21    22    1
    15    22    23    1
    16    23    24    2
    17    23    25    1
    18    25    26    2
    19    26    27    1
    20    27    32   ar
    21    27    28   ar
    22    28    29   ar
    23    29    30   ar
    24    29    35    1
    25    30    31   ar
    26    31    32   ar
    27    31    33    1
    28    33    34    1
    29    35    36    1
    30    13    18   ar
    31    13    14   ar
    32    14    15   ar
    33    15    16   ar
    34    16    17   ar
    35    16    19    1
    36    17    18   ar
    37    19    20    1
    38     1     4    1
#	Name:			ZINC11526506
#	Creating user name:	trannguyen
#	Creation time:		Wed Dec  7 14:36:19 2022


#	Modifying user name:	trannguyen
#	Modification time:	Wed Dec  7 14:36:19 2022

@<TRIPOS>MOLECULE
ZINC11526506
 27 28 0 0 0
SMALL
GASTEIGER

@<TRIPOS>ATOM
      1 C          20.9684  -24.4237   18.5026 C.2     1  UNL1        0.2375
      2 O          22.0941  -23.9907   18.3741 O.2     1  UNL1       -0.2738
      3 N          19.9170  -23.7120   18.0506 N.am    1  UNL1       -0.2832
      4 H          18.9998  -24.0251   18.2234 H       1  UNL1        0.1549
      5 C          20.1293  -22.5265   17.3347 C.ar    1  UNL1        0.0514
      6 C          20.1777  -21.3105   18.0036 C.ar    1  UNL1        0.0178
      7 C          20.3874  -20.1422   17.2979 C.ar    1  UNL1        0.0392
      8 C          20.5492  -20.1823   15.9210 C.ar    1  UNL1        0.1548
      9 C          20.4953  -21.3966   15.2506 C.ar    1  UNL1        0.0929
     10 C          20.2916  -22.5671   15.9566 C.ar    1  UNL1        0.0291
     11 CL         20.6902  -21.4456   13.5263 Cl      1  UNL1       -0.0790
     12 O          20.7551  -19.0312   15.2268 O.3     1  UNL1       -0.4228
     13 C          22.1084  -18.5982   15.0754 C.3     1  UNL1        0.5087
     14 F          22.2594  -17.9638   13.8378 F       1  UNL1       -0.1550
     15 F          22.4289  -17.7021   16.1009 F       1  UNL1       -0.1550
     16 C          20.7456  -25.7574   19.1680 C.3     1  UNL1        0.1492
     17 S          21.2203  -27.0878   18.0300 S.3     1  UNL1       -0.0768
     18 C          19.3126  -25.7998   14.2383 C.ar    1  UNL1        0.1831
     19 N          20.6283  -25.7242   14.2803 N.ar    1  UNL1       -0.1252
     20 N          21.3001  -26.1041   15.4192 N.ar    1  UNL1       -0.1331
     21 C          20.6246  -26.5423   16.4641 C.ar    1  UNL1        0.1610
     22 S          18.9451  -26.4420   15.8642 S.2     1  UNL1       -0.0245
     23 N          18.4442  -25.4726   13.2036 N.pl3   1  UNL1       -0.3078
     24 H          17.6674  -26.0466   13.0128 H       1  UNL1        0.1490
     25 C          18.6846  -24.2735   12.3970 C.3     1  UNL1        0.1155
     26 C          16.4793  -23.5537   13.1584 C.2     1  UNL1       -0.0032
     27 C          17.6808  -23.2113   12.7645 C.2     1  UNL1       -0.0050
@<TRIPOS>BOND
     1    26    27    2
     2    27    25    1
     3    25    23    1
     4    23    18    1
     5    18    22   ar
     6    18    19   ar
     7    19    20   ar
     8    20    21   ar
     9    21    22   ar
    10    21    17    1
    11    17    16    1
    12    16     1    1
    13     1     2    2
    14     1     3   am
    15     3     5    1
    16     5    10   ar
    17     5     6   ar
    18     6     7   ar
    19     7     8   ar
    20     8     9   ar
    21     8    12    1
    22     9    10   ar
    23     9    11    1
    24    12    13    1
    25    13    14    1
    26    13    15    1
    27    23    24    1
    28     3     4    1
#	Name:			ZINC11527065
#	Creating user name:	trannguyen
#	Creation time:		Wed Dec  7 14:36:19 2022


#	Modifying user name:	trannguyen
#	Modification time:	Wed Dec  7 14:36:19 2022

@<TRIPOS>MOLECULE
ZINC11527065
 38 41 0 0 0
SMALL
GASTEIGER

@<TRIPOS>ATOM
      1 C          15.5100  -24.3001   14.0416 C.2     1  UNL1        0.3444
      2 O          14.7471  -23.3573   13.9639 O.2     1  UNL1       -0.2448
      3 C          14.3468  -25.9146   15.5574 C.ar    1  UNL1        0.1384
      4 C          15.4921  -25.1656   15.2332 C.ar    1  UNL1        0.1072
      5 C          16.6152  -25.2583   16.0640 C.ar    1  UNL1        0.0109
      6 C          16.5476  -26.0858   17.1707 C.ar    1  UNL1        0.0210
      7 C          15.3868  -26.7961   17.4209 C.ar    1  UNL1        0.1003
      8 N          14.3371  -26.6912   16.6298 N.ar    1  UNL1       -0.2289
      9 N          13.2253  -25.8398   14.7517 N.pl3   1  UNL1       -0.2978
     10 H          12.8239  -24.9646   14.5467 H       1  UNL1        0.1536
     11 C          11.5440  -29.3208   13.1911 C.ar    1  UNL1        0.1386
     12 C          10.7861  -28.4876   14.0006 C.ar    1  UNL1        0.0382
     13 C          11.3422  -27.3342   14.5179 C.ar    1  UNL1        0.0178
     14 C          12.6607  -27.0090   14.2277 C.ar    1  UNL1        0.0496
     15 C          13.4171  -27.8410   13.4129 C.ar    1  UNL1        0.0178
     16 C          12.8611  -28.9966   12.9007 C.ar    1  UNL1        0.0382
     17 O          10.9953  -30.4560   12.6814 O.3     1  UNL1       -0.4755
     18 C          12.1087  -32.3297   11.6376 C.3     1  UNL1        0.0512
     19 C          11.6737  -31.6837   12.9544 C.3     1  UNL1        0.2055
     20 O          16.3723  -24.5536   13.0375 O.3     1  UNL1       -0.4352
     21 C          16.6551  -23.4640   12.1204 C.3     1  UNL1        0.2927
     22 C          18.1065  -23.0747   12.2353 C.2     1  UNL1        0.2676
     23 O          18.7671  -22.8949   11.2342 O.2     1  UNL1       -0.2710
     24 N          18.6703  -22.9264   13.4504 N.am    1  UNL1       -0.2932
     25 H          18.1340  -23.0725   14.2630 H       1  UNL1        0.1502
     26 C          20.0811  -22.5480   13.5621 C.3     1  UNL1        0.1518
     27 C          20.2685  -21.6563   14.7624 C.ar    1  UNL1        0.0027
     28 C          20.7682  -20.3774   14.6022 C.ar    1  UNL1       -0.0023
     29 C          20.9360  -19.5580   15.7028 C.ar    1  UNL1       -0.0003
     30 C          20.6126  -20.0207   16.9646 C.ar    1  UNL1       -0.0000
     31 C          20.1179  -21.3014   17.1255 C.ar    1  UNL1       -0.0003
     32 C          19.9461  -22.1193   16.0243 C.ar    1  UNL1       -0.0023
     33 C          20.9228  -23.7880   13.7211 C.ar    1  UNL1        0.1428
     34 N          20.4878  -24.9591   14.0983 N.ar    1  UNL1       -0.2273
     35 C          21.5129  -25.8238   14.1259 C.ar    1  UNL1        0.1189
     36 C          22.6267  -25.1613   13.7595 C.ar    1  UNL1        0.0978
     37 N          22.2529  -23.8698   13.5026 N.ar    1  UNL1       -0.3101
     38 C          23.1315  -22.7800   13.0707 C.3     1  UNL1        0.1317
@<TRIPOS>BOND
     1    18    19    1
     2    19    17    1
     3    17    11    1
     4    11    16   ar
     5    11    12   ar
     6    12    13   ar
     7    13    14   ar
     8    14    15   ar
     9    14     9    1
    10    15    16   ar
    11     9     3    1
    12     3     8   ar
    13     3     4   ar
    14     4     5   ar
    15     4     1    1
    16     5     6   ar
    17     6     7   ar
    18     7     8   ar
    19     1     2    2
    20     1    20    1
    21    20    21    1
    22    21    22    1
    23    22    23    2
    24    22    24   am
    25    24    26    1
    26    26    27    1
    27    26    33    1
    28    27    32   ar
    29    27    28   ar
    30    28    29   ar
    31    29    30   ar
    32    30    31   ar
    33    31    32   ar
    34    33    37   ar
    35    33    34   ar
    36    34    35   ar
    37    35    36   ar
    38    36    37   ar
    39    37    38    1
    40     9    10    1
    41    24    25    1
#	Name:			ZINC11708729
#	Creating user name:	trannguyen
#	Creation time:		Wed Dec  7 14:36:19 2022


#	Modifying user name:	trannguyen
#	Modification time:	Wed Dec  7 14:36:19 2022

@<TRIPOS>MOLECULE
ZINC11708729
 31 32 0 0 0
SMALL
GASTEIGER

@<TRIPOS>ATOM
      1 C          20.5274  -25.1362   13.2563 C.ar    1  UNL1        0.1072
      2 C          19.5314  -25.8938   12.6276 C.ar    1  UNL1        0.0109
      3 C          18.4459  -25.2306   12.0846 C.ar    1  UNL1        0.0210
      4 C          18.3768  -23.8509   12.1710 C.ar    1  UNL1        0.1003
      5 N          19.3221  -23.1555   12.7717 N.ar    1  UNL1       -0.2289
      6 C          20.3827  -23.7388   13.3089 C.ar    1  UNL1        0.1384
      7 C          21.7050  -25.7913   13.8509 C.2     1  UNL1        0.3444
      8 O          21.7969  -25.8966   15.0580 O.2     1  UNL1       -0.2448
      9 O          22.6805  -26.2741   13.0562 O.3     1  UNL1       -0.4352
     10 C          23.9048  -25.4981   12.9698 C.3     1  UNL1        0.2927
     11 N          24.5425  -25.8187   10.6015 N.am    1  UNL1       -0.3012
     12 C          24.7932  -26.0788   11.8999 C.2     1  UNL1        0.2671
     13 O          25.7336  -26.7803   12.2074 O.2     1  UNL1       -0.2711
     14 H          23.7792  -25.2493   10.3520 H       1  UNL1        0.1495
     15 C          25.4061  -26.3833    9.5615 C.3     1  UNL1        0.0921
     16 C          24.5602  -27.2056    8.5872 C.3     1  UNL1        0.0533
     17 C          24.3785  -28.6211    9.1387 C.3     1  UNL1        0.1440
     18 C          22.6116  -28.9407   10.7264 C.3     1  UNL1        0.1741
     19 O          22.9883  -28.8754    9.3495 O.3     1  UNL1       -0.3510
     20 N          21.3534  -22.9693   13.9245 N.pl3   1  UNL1       -0.2978
     21 H          22.2971  -23.0633   13.6601 H       1  UNL1        0.1536
     22 C          20.9945  -22.0582   14.9220 C.ar    1  UNL1        0.0493
     23 C          20.4350  -22.5114   16.1102 C.ar    1  UNL1        0.0146
     24 C          20.0815  -21.6087   17.0935 C.ar    1  UNL1        0.0012
     25 C          20.2842  -20.2548   16.8967 C.ar    1  UNL1        0.0039
     26 C          20.8407  -19.8004   15.7154 C.ar    1  UNL1        0.0726
     27 C          21.2014  -20.6984   14.7298 C.ar    1  UNL1        0.0185
     28 C          21.0597  -18.3242   15.5054 C.3     1  UNL1        0.4186
     29 F          22.1474  -17.8999   16.2760 F       1  UNL1       -0.1659
     30 F          21.3223  -18.0795   14.1532 F       1  UNL1       -0.1659
     31 F          19.9126  -17.6229   15.8920 F       1  UNL1       -0.1659
@<TRIPOS>BOND
     1    18    19    1
     2    19    17    1
     3    17    16    1
     4    16    15    1
     5    15    11    1
     6    11    12   am
     7    12    13    2
     8    12    10    1
     9    10     9    1
    10     9     7    1
    11     7     8    2
    12     7     1    1
    13     1     6   ar
    14     1     2   ar
    15     2     3   ar
    16     3     4   ar
    17     4     5   ar
    18     5     6   ar
    19     6    20    1
    20    20    22    1
    21    22    27   ar
    22    22    23   ar
    23    23    24   ar
    24    24    25   ar
    25    25    26   ar
    26    26    27   ar
    27    26    28    1
    28    28    29    1
    29    28    30    1
    30    28    31    1
    31    11    14    1
    32    20    21    1
#	Name:			ZINC11854701
#	Creating user name:	trannguyen
#	Creation time:		Wed Dec  7 14:36:20 2022


#	Modifying user name:	trannguyen
#	Modification time:	Wed Dec  7 14:36:20 2022

@<TRIPOS>MOLECULE
ZINC11854701
 33 36 0 0 0
SMALL
GASTEIGER

@<TRIPOS>ATOM
      1 N          19.8525  -25.9437   17.3289 N.ar    1  UNL1       -0.1839
      2 C          19.6309  -25.1765   18.4374 C.ar    1  UNL1        0.1402
      3 C          19.4035  -26.0148   19.4798 C.ar    1  UNL1        0.0559
      4 C          19.4799  -27.3375   18.9948 C.ar    1  UNL1        0.1102
      5 N          19.7520  -27.2886   17.7068 N.ar    1  UNL1       -0.1609
      6 C          19.3870  -24.4539   14.1253 C.ar    1  UNL1        0.0668
      7 C          20.6299  -24.5484   13.5715 C.ar    1  UNL1        0.0754
      8 C          21.6636  -25.1424   14.3198 C.ar    1  UNL1        0.2611
      9 O          22.7877  -25.2436   13.8569 O.2     1  UNL1       -0.2671
     10 N          21.3877  -25.5927   15.5626 N.ar    1  UNL1       -0.2909
     11 C          20.1274  -25.4753   16.0590 C.ar    1  UNL1        0.2338
     12 N          19.1663  -24.9189   15.3537 N.ar    1  UNL1       -0.2157
     13 H          22.0968  -26.0046   16.1074 H       1  UNL1        0.1719
     14 C          18.2622  -23.8220   13.3465 C.3     1  UNL1        0.0461
     15 C          18.0095  -23.5810   10.8726 C.3     1  UNL1        0.0004
     16 C          18.8250  -23.1491   12.0930 C.3     1  UNL1        0.0063
     17 C          19.2929  -28.5663   19.7951 C.ar    1  UNL1        0.0489
     18 C          18.8682  -28.6962   21.0905 C.ar    1  UNL1        0.0086
     19 C          18.7697  -29.9592   21.6316 C.ar    1  UNL1        0.0075
     20 C          19.0953  -31.0335   20.8677 C.ar    1  UNL1        0.0355
     21 S          19.5546  -30.2678   19.3218 S.2     1  UNL1       -0.0849
     22 N          19.6423  -23.7844   18.4893 N.am    1  UNL1       -0.2692
     23 C          20.8107  -23.1168   18.4142 C.2     1  UNL1        0.2272
     24 O          21.8522  -23.7280   18.3013 O.2     1  UNL1       -0.2747
     25 H          18.7969  -23.2883   18.5809 H       1  UNL1        0.1563
     26 C          20.8230  -21.6109   18.4704 C.3     1  UNL1        0.0854
     27 C          20.0044  -21.0504   17.3057 C.3     1  UNL1        0.0096
     28 C          20.9501  -20.5276   16.2225 C.3     1  UNL1        0.0005
     29 C          20.4502  -20.9782   14.8485 C.3     1  UNL1        0.0000
     30 C          21.3958  -20.4555   13.7652 C.3     1  UNL1        0.0000
     31 C          21.4358  -18.9269   13.8173 C.3     1  UNL1        0.0000
     32 C          21.9357  -18.4763   15.1913 C.3     1  UNL1        0.0000
     33 C          20.9900  -18.9990   16.2746 C.3     1  UNL1        0.0000
@<TRIPOS>BOND
     1    15    16    1
     2    16    14    1
     3    14     6    1
     4     6    12   ar
     5     6     7   ar
     6     7     8   ar
     7     8     9    2
     8     8    10   ar
     9    10    11   ar
    10    11    12   ar
    11    11     1    1
    12     1     5   ar
    13     1     2   ar
    14     2     3   ar
    15     2    22    1
    16     3     4   ar
    17     4     5   ar
    18     4    17    1
    19    17    21   ar
    20    17    18   ar
    21    18    19   ar
    22    19    20   ar
    23    20    21   ar
    24    22    23   am
    25    23    24    2
    26    23    26    1
    27    26    27    1
    28    27    28    1
    29    28    33    1
    30    28    29    1
    31    29    30    1
    32    30    31    1
    33    31    32    1
    34    32    33    1
    35    10    13    1
    36    22    25    1
#	Name:			ZINC12005545
#	Creating user name:	trannguyen
#	Creation time:		Wed Dec  7 14:36:20 2022


#	Modifying user name:	trannguyen
#	Modification time:	Wed Dec  7 14:36:20 2022

@<TRIPOS>MOLECULE
ZINC12005545
 39 41 0 0 0
SMALL
GASTEIGER

@<TRIPOS>ATOM
      1 C          21.7235  -22.9783   14.8107 C.2     1  UNL1        0.3429
      2 O          22.9128  -23.2275   14.7987 O.2     1  UNL1       -0.2448
      3 C          20.2392  -21.9563   16.5353 C.ar    1  UNL1        0.0512
      4 C          19.7808  -20.8411   17.2261 C.ar    1  UNL1        0.0162
      5 C          20.2891  -19.5917   16.9370 C.ar    1  UNL1        0.0253
      6 C          21.2582  -19.4374   15.9578 C.ar    1  UNL1        0.1432
      7 C          21.7250  -20.5303   15.2619 C.ar    1  UNL1        0.0318
      8 C          21.2245  -21.8042   15.5467 C.ar    1  UNL1        0.0904
      9 N          21.7945  -18.0904   15.6590 N.pl3   1  UNL1        0.0577
     10 O          22.1670  -17.8196   14.5315 O.2     1  UNL1       -0.1261
     11 O          21.8633  -17.2530   16.5408 O.2     1  UNL1       -0.1261
     12 N          19.7298  -23.2149   16.8251 N.pl3   1  UNL1       -0.3289
     13 H          19.0813  -23.6358   16.2156 H       1  UNL1        0.1471
     14 C          20.1572  -23.9167   18.0380 C.3     1  UNL1        0.1143
     15 C          16.7407  -25.5412   20.0217 C.ar    1  UNL1       -0.0000
     16 C          17.7867  -26.3683   19.6575 C.ar    1  UNL1       -0.0003
     17 C          18.8923  -25.8426   19.0157 C.ar    1  UNL1       -0.0026
     18 C          18.9519  -24.4897   18.7379 C.ar    1  UNL1       -0.0026
     19 C          17.9057  -23.6628   19.1016 C.ar    1  UNL1       -0.0026
     20 C          16.8000  -24.1884   19.7435 C.ar    1  UNL1       -0.0003
     21 O          20.8611  -23.7764   14.1506 O.3     1  UNL1       -0.4353
     22 C          20.3172  -23.2701   12.9032 C.3     1  UNL1        0.2929
     23 C          18.8137  -23.2210   12.9940 C.2     1  UNL1        0.2706
     24 O          18.2641  -22.2279   13.4211 O.2     1  UNL1       -0.2708
     25 N          18.0799  -24.2809   12.6007 N.am    1  UNL1       -0.2719
     26 C          18.7438  -25.4806   12.0846 C.3     1  UNL1        0.1034
     27 C          18.9835  -26.4641   13.2318 C.3     1  UNL1        0.1063
     28 C          20.4313  -26.8822   13.2408 C.2     1  UNL1        0.2211
     29 O          20.9584  -27.2646   12.2177 O.2     1  UNL1       -0.2753
     30 N          21.1403  -26.8311   14.3858 N.am    1  UNL1       -0.3287
     31 H          20.7124  -26.5206   15.2163 H       1  UNL1        0.1449
     32 H          22.0862  -27.1042   14.3917 H       1  UNL1        0.1449
     33 C          16.6183  -24.2332   12.6890 C.3     1  UNL1        0.1202
     34 C          16.1642  -24.9876   13.9121 C.ar    1  UNL1       -0.0023
     35 C          16.6519  -24.6414   15.1583 C.ar    1  UNL1       -0.0026
     36 C          16.2316  -25.3301   16.2807 C.ar    1  UNL1       -0.0003
     37 C          15.3313  -26.3717   16.1557 C.ar    1  UNL1       -0.0000
     38 C          14.8480  -26.7216   14.9087 C.ar    1  UNL1       -0.0003
     39 C          15.2642  -26.0294   13.7870 C.ar    1  UNL1       -0.0026
@<TRIPOS>BOND
     1    15    20   ar
     2    15    16   ar
     3    16    17   ar
     4    17    18   ar
     5    18    19   ar
     6    18    14    1
     7    19    20   ar
     8    14    12    1
     9    12     3    1
    10     3     8   ar
    11     3     4   ar
    12     4     5   ar
    13     5     6   ar
    14     6     7   ar
    15     6     9    1
    16     7     8   ar
    17     8     1    1
    18     1     2    2
    19     1    21    1
    20    21    22    1
    21    22    23    1
    22    23    24    2
    23    23    25   am
    24    25    26    1
    25    25    33    1
    26    26    27    1
    27    27    28    1
    28    28    29    2
    29    28    30   am
    30    33    34    1
    31    34    39   ar
    32    34    35   ar
    33    35    36   ar
    34    36    37   ar
    35    37    38   ar
    36    38    39   ar
    37     9    10    2
    38     9    11    2
    39    12    13    1
    40    30    31    1
    41    30    32    1
#	Name:			ZINC12042566
#	Creating user name:	trannguyen
#	Creation time:		Wed Dec  7 14:36:19 2022


#	Modifying user name:	trannguyen
#	Modification time:	Wed Dec  7 14:36:19 2022

@<TRIPOS>MOLECULE
ZINC12042566
 35 37 0 0 0
SMALL
GASTEIGER

@<TRIPOS>ATOM
      1 N          19.8575  -25.3860   15.3835 N.am    1  UNL1       -0.2785
      2 C          20.7626  -25.2819   14.3903 C.2     1  UNL1        0.2708
      3 O          21.9116  -24.9885   14.6453 O.2     1  UNL1       -0.2707
      4 H          18.9200  -25.6021   15.1744 H       1  UNL1        0.1551
      5 C          19.9943  -23.9707   17.3429 C.ar    1  UNL1        0.1586
      6 C          20.3813  -23.7811   18.6601 C.ar    1  UNL1        0.0388
      7 C          21.0293  -24.7935   19.3428 C.ar    1  UNL1        0.0032
      8 C          21.2887  -25.9989   18.7167 C.ar    1  UNL1        0.0015
      9 C          20.9014  -26.1979   17.4052 C.ar    1  UNL1        0.0178
     10 C          20.2507  -25.1868   16.7134 C.ar    1  UNL1        0.0854
     11 O          19.3619  -22.9740   16.6683 O.3     1  UNL1       -0.4522
     12 C          22.1820  -18.1815   15.7731 C.3     1  UNL1        0.0310
     13 C          21.4275  -19.4638   16.0128 C.ar    1  UNL1       -0.0217
     14 C          21.7327  -20.5924   15.2745 C.ar    1  UNL1       -0.0011
     15 C          21.0427  -21.7691   15.4921 C.ar    1  UNL1        0.0372
     16 C          20.0425  -21.8179   16.4527 C.ar    1  UNL1        0.1453
     17 C          19.7346  -20.6825   17.1885 C.ar    1  UNL1        0.0372
     18 C          20.4316  -19.5099   16.9708 C.ar    1  UNL1       -0.0011
     19 C          20.3472  -25.5300   12.9632 C.3     1  UNL1        0.2927
     20 O          18.9876  -25.0596   12.7662 O.3     1  UNL1       -0.4383
     21 C          18.8181  -24.0134   11.9424 C.2     1  UNL1        0.3192
     22 O          19.4878  -23.0179   12.0844 O.2     1  UNL1       -0.2500
     23 C          17.7924  -24.0807   10.8404 C.3     1  UNL1        0.1307
     24 C          16.3960  -23.8719   11.4298 C.3     1  UNL1        0.1014
     25 N          16.2139  -24.7601   12.5806 N.am    1  UNL1       -0.3003
     26 C          15.5482  -24.3252   13.6688 C.2     1  UNL1        0.2458
     27 O          15.0989  -23.1961   13.6954 O.2     1  UNL1       -0.2701
     28 H          16.5777  -25.6746   12.5589 H       1  UNL1        0.1498
     29 C          15.3645  -25.2216   14.8300 C.ar    1  UNL1        0.0530
     30 C          14.3125  -26.1389   14.8481 C.ar    1  UNL1        0.0045
     31 C          14.1469  -26.9725   15.9345 C.ar    1  UNL1       -0.0002
     32 C          15.0210  -26.9009   17.0050 C.ar    1  UNL1       -0.0043
     33 C          16.0625  -25.9906   16.9957 C.ar    1  UNL1       -0.0217
     34 C          16.2424  -25.1545   15.9129 C.ar    1  UNL1        0.0003
     35 C          17.0062  -25.9157   18.1683 C.3     1  UNL1        0.0310
@<TRIPOS>BOND
     1    12    13    1
     2    13    18   ar
     3    13    14   ar
     4    14    15   ar
     5    15    16   ar
     6    16    17   ar
     7    16    11    1
     8    17    18   ar
     9    11     5    1
    10     5    10   ar
    11     5     6   ar
    12     6     7   ar
    13     7     8   ar
    14     8     9   ar
    15     9    10   ar
    16    10     1    1
    17     1     2   am
    18     2     3    2
    19     2    19    1
    20    19    20    1
    21    20    21    1
    22    21    22    2
    23    21    23    1
    24    23    24    1
    25    24    25    1
    26    25    26   am
    27    26    27    2
    28    26    29    1
    29    29    34   ar
    30    29    30   ar
    31    30    31   ar
    32    31    32   ar
    33    32    33   ar
    34    33    34   ar
    35    33    35    1
    36     1     4    1
    37    25    28    1
#	Name:			ZINC12137693
#	Creating user name:	trannguyen
#	Creation time:		Wed Dec  7 14:36:19 2022


#	Modifying user name:	trannguyen
#	Modification time:	Wed Dec  7 14:36:19 2022

@<TRIPOS>MOLECULE
ZINC12137693
 41 43 0 0 0
SMALL
GASTEIGER

@<TRIPOS>ATOM
      1 N          22.1387  -23.2022   14.9951 N.am    1  UNL1       -0.2453
      2 H          22.6314  -23.4849   15.7992 H       1  UNL1        0.1718
      3 N          20.7993  -23.5767   14.8264 N.am    1  UNL1       -0.2311
      4 C          20.4203  -24.8484   15.0621 C.2     1  UNL1        0.2613
      5 O          21.2409  -25.6707   15.4213 O.2     1  UNL1       -0.2686
      6 H          20.1349  -22.9109   14.5356 H       1  UNL1        0.1731
      7 C          19.0093  -25.2430   14.8844 C.ar    1  UNL1        0.0549
      8 C          18.6451  -26.5906   14.9524 C.ar    1  UNL1        0.0058
      9 C          17.3281  -26.9552   14.7865 C.ar    1  UNL1        0.0148
     10 C          16.3598  -25.9837   14.5516 C.ar    1  UNL1        0.0505
     11 C          16.7191  -24.6410   14.4839 C.ar    1  UNL1        0.0148
     12 C          18.0345  -24.2698   14.6484 C.ar    1  UNL1        0.0058
     13 N          15.0275  -26.3562   14.3843 N.am    1  UNL1       -0.2804
     14 C          14.3190  -26.8151   15.4350 C.2     1  UNL1        0.2495
     15 O          14.8107  -26.8141   16.5466 O.2     1  UNL1       -0.2698
     16 H          14.6038  -26.2841   13.4986 H       1  UNL1        0.1552
     17 C          12.9442  -27.3198   15.2355 C.ar    1  UNL1        0.0537
     18 C          12.4252  -27.4493   13.9461 C.ar    1  UNL1        0.0045
     19 C          11.1434  -27.9268   13.7666 C.ar    1  UNL1        0.0001
     20 C          10.3685  -28.2658   14.8616 C.ar    1  UNL1        0.0000
     21 C          10.8747  -28.1340   16.1426 C.ar    1  UNL1        0.0001
     22 C          12.1571  -27.6636   16.3358 C.ar    1  UNL1        0.0045
     23 C          22.7529  -22.4549   14.0566 C.2     1  UNL1        0.1531
     24 S          23.7781  -23.1994   12.9053 S.2     1  UNL1       -0.0170
     25 C          21.5220  -20.6071   13.3356 C.2     1  UNL1        0.2279
     26 O          20.7618  -21.3440   12.7447 O.2     1  UNL1       -0.2747
     27 N          22.5599  -21.1214   14.0245 N.am    1  UNL1       -0.2662
     28 H          23.1771  -20.5230   14.5042 H       1  UNL1        0.1565
     29 C          21.3061  -19.1161   13.2997 C.3     1  UNL1        0.0971
     30 C          22.2320  -18.4420   14.3141 C.3     1  UNL1        0.1191
     31 C          21.5241  -18.3237   15.6393 C.2     1  UNL1        0.3175
     32 O          21.8227  -17.4397   16.4069 O.2     1  UNL1       -0.2501
     33 O          20.5618  -19.2003   15.9667 O.3     1  UNL1       -0.4481
     34 C          20.9056  -20.2249   16.9365 C.3     1  UNL1        0.2131
     35 C          19.6280  -20.7676   17.5797 C.3     1  UNL1        0.0737
     36 C          20.2443  -24.8240   18.7687 C.ar    1  UNL1       -0.0000
     37 C          21.3080  -23.9414   18.7453 C.ar    1  UNL1       -0.0003
     38 C          21.1086  -22.6288   18.3603 C.ar    1  UNL1       -0.0041
     39 C          19.8455  -22.1986   17.9991 C.ar    1  UNL1       -0.0184
     40 C          18.7808  -23.0798   18.0279 C.ar    1  UNL1       -0.0041
     41 C          18.9811  -24.3937   18.4079 C.ar    1  UNL1       -0.0003
@<TRIPOS>BOND
     1    36    41   ar
     2    36    37   ar
     3    37    38   ar
     4    38    39   ar
     5    39    40   ar
     6    39    35    1
     7    40    41   ar
     8    35    34    1
     9    34    33    1
    10    33    31    1
    11    31    32    2
    12    31    30    1
    13    30    29    1
    14    29    25    1
    15    25    26    2
    16    25    27   am
    17    27    23    1
    18    23    24    2
    19    23     1    1
    20     1     3    1
    21     3     4   am
    22     4     5    2
    23     4     7    1
    24     7    12   ar
    25     7     8   ar
    26     8     9   ar
    27     9    10   ar
    28    10    11   ar
    29    10    13    1
    30    11    12   ar
    31    13    14   am
    32    14    15    2
    33    14    17    1
    34    17    22   ar
    35    17    18   ar
    36    18    19   ar
    37    19    20   ar
    38    20    21   ar
    39    21    22   ar
    40    27    28    1
    41     1     2    1
    42     3     6    1
    43    13    16    1
#	Name:			ZINC12190023
#	Creating user name:	trannguyen
#	Creation time:		Wed Dec  7 14:36:20 2022


#	Modifying user name:	trannguyen
#	Modification time:	Wed Dec  7 14:36:20 2022

@<TRIPOS>MOLECULE
ZINC12190023
 33 36 0 0 0
SMALL
GASTEIGER

@<TRIPOS>ATOM
      1 N          16.8814  -25.2840   13.1031 N.am    1  UNL1       -0.2809
      2 C          15.9473  -25.3850   14.0692 C.2     1  UNL1        0.2708
      3 O          16.0924  -24.7922   15.1175 O.2     1  UNL1       -0.2707
      4 H          16.8050  -25.8275   12.2857 H       1  UNL1        0.1550
      5 C          20.0952  -22.6696   13.5756 C.ar    1  UNL1        0.1454
      6 C          20.2360  -24.0090   13.9094 C.ar    1  UNL1        0.0388
      7 C          19.1721  -24.8752   13.7532 C.ar    1  UNL1        0.0178
      8 C          17.9612  -24.4056   13.2618 C.ar    1  UNL1        0.0506
      9 C          17.8228  -23.0663   12.9226 C.ar    1  UNL1        0.0178
     10 C          18.8855  -22.1998   13.0850 C.ar    1  UNL1        0.0388
     11 O          21.1431  -21.8172   13.7297 O.3     1  UNL1       -0.4535
     12 C          20.7088  -18.6709   16.3622 C.ar    1  UNL1        0.0002
     13 C          21.0756  -18.4283   15.0512 C.ar    1  UNL1        0.0031
     14 C          21.2220  -19.4801   14.1678 C.ar    1  UNL1        0.0375
     15 C          21.0002  -20.7809   14.5968 C.ar    1  UNL1        0.1453
     16 C          20.6267  -21.0211   15.9114 C.ar    1  UNL1        0.0375
     17 C          20.4871  -19.9662   16.7922 C.ar    1  UNL1        0.0031
     18 C          14.7224  -26.2343   13.8472 C.3     1  UNL1        0.2930
     19 O          13.8735  -26.1551   14.9941 O.3     1  UNL1       -0.4349
     20 C          12.5423  -26.1451   14.7716 C.2     1  UNL1        0.3478
     21 O          11.8908  -25.1484   15.0227 O.2     1  UNL1       -0.2443
     22 C          11.9036  -27.2948   14.2458 C.ar    1  UNL1        0.1063
     23 C          10.7083  -27.3855   13.5444 C.ar    1  UNL1        0.0148
     24 C          10.3091  -28.6316   13.1439 C.ar    1  UNL1        0.0221
     25 C          11.1040  -29.7150   13.4537 C.ar    1  UNL1        0.0809
     26 S          12.4274  -28.9987   14.3144 S.2     1  UNL1       -0.0658
     27 N          10.8947  -31.0543   13.1508 N.am    1  UNL1       -0.2790
     28 C          10.3608  -31.8785   14.0739 C.2     1  UNL1        0.2260
     29 O          10.0632  -31.4508   15.1691 O.2     1  UNL1       -0.2748
     30 H          11.1363  -31.4015   12.2617 H       1  UNL1        0.1553
     31 C          10.1336  -33.3316   13.7452 C.3     1  UNL1        0.0768
     32 C          11.2333  -34.3232   14.1303 C.3     1  UNL1        0.0096
     33 C          11.0138  -33.9567   12.6612 C.3     1  UNL1        0.0096
@<TRIPOS>BOND
     1    12    17   ar
     2    12    13   ar
     3    13    14   ar
     4    14    15   ar
     5    15    16   ar
     6    15    11    1
     7    16    17   ar
     8    11     5    1
     9     5    10   ar
    10     5     6   ar
    11     6     7   ar
    12     7     8   ar
    13     8     9   ar
    14     8     1    1
    15     9    10   ar
    16     1     2   am
    17     2     3    2
    18     2    18    1
    19    18    19    1
    20    19    20    1
    21    20    21    2
    22    20    22    1
    23    22    26   ar
    24    22    23   ar
    25    23    24   ar
    26    24    25   ar
    27    25    26   ar
    28    25    27    1
    29    27    28   am
    30    28    29    2
    31    28    31    1
    32    31    33    1
    33    31    32    1
    34    32    33    1
    35     1     4    1
    36    27    30    1
#	Name:			ZINC12475445
#	Creating user name:	trannguyen
#	Creation time:		Wed Dec  7 14:36:19 2022


#	Modifying user name:	trannguyen
#	Modification time:	Wed Dec  7 14:36:19 2022

@<TRIPOS>MOLECULE
ZINC12475445
 22 23 0 0 0
SMALL
GASTEIGER

@<TRIPOS>ATOM
      1 N          21.0782  -24.0894   13.7442 N.2     1  UNL1       -0.1476
      2 N          21.9150  -23.2953   14.3216 N.2     1  UNL1       -0.1643
      3 C          21.6054  -22.7365   15.4692 C.2     1  UNL1        0.0195
      4 C          21.2719  -21.3053   15.5239 C.2     1  UNL1        0.0072
      5 C          20.8843  -20.7029   16.7359 C.2     1  UNL1        0.0215
      6 C          20.5885  -19.3768   16.7523 C.2     1  UNL1        0.1049
      7 N          20.6574  -18.6430   15.6268 N.4     1  UNL1       -0.2184
      8 C          21.0187  -19.1885   14.4514 C.2     1  UNL1        0.1049
      9 C          21.3273  -20.5091   14.3642 C.2     1  UNL1        0.0215
     10 O          20.3416  -17.2637   15.6805 O.3     1  UNL1       -0.2817
     11 O          21.5932  -23.4791   16.6033 O.co2   1  UNL1       -0.8586
     12 H          20.1021  -17.0220   16.5889 H       1  UNL1        0.2448
     13 C          16.3153  -23.9330   13.1595 C.2     1  UNL1        0.1774
     14 C          17.4104  -24.1234   13.9513 C.2     1  UNL1        0.0418
     15 C          18.6992  -24.0515   13.3947 C.2     1  UNL1        0.0242
     16 C          19.8739  -24.2495   14.2428 C.2     1  UNL1        0.1222
     17 C          18.8581  -23.7951   12.0240 C.2     1  UNL1        0.0051
     18 C          17.7636  -23.6103   11.2324 C.2     1  UNL1        0.0453
     19 C          16.4780  -23.6757   11.7856 C.2     1  UNL1        0.2293
     20 O          15.4069  -23.4943   11.0089 O.2     1  UNL1       -0.2833
     21 C          14.9562  -24.5311   15.0179 C.3     1  UNL1        0.2526
     22 O          15.0671  -23.9971   13.6971 O.2     1  UNL1       -0.4682
@<TRIPOS>UNITY_ATOM_ATTR
11 1
charge -1
@<TRIPOS>BOND
     1    21    22    1
     2    22    13    1
     3    13    19    1
     4    13    14    2
     5    14    15    1
     6    15    16    2
     7    15    17    1
     8    16     1    1
     9     1     2    2
    10     2     3    1
    11     3     4    2
    12     3    11    1
    13     4     9    1
    14     4     5    1
    15     5     6    2
    16     6     7    1
    17     7     8    1
    18     7    10    1
    19     8     9    2
    20    17    18    2
    21    18    19    1
    22    19    20    2
    23    10    12    1
#	Name:			ZINC12525161
#	Creating user name:	trannguyen
#	Creation time:		Wed Dec  7 14:36:19 2022


#	Modifying user name:	trannguyen
#	Modification time:	Wed Dec  7 14:36:19 2022

@<TRIPOS>MOLECULE
ZINC12525161
 36 39 0 0 0
SMALL
GASTEIGER

@<TRIPOS>ATOM
      1 C          19.9274  -24.4445   16.6660 C.2     1  UNL1        0.2233
      2 O          20.9705  -24.9999   16.3934 O.2     1  UNL1       -0.2751
      3 N          19.3191  -23.6658   15.7494 N.am    1  UNL1       -0.2986
      4 H          18.4723  -23.2149   15.9706 H       1  UNL1        0.1500
      5 C          19.3114  -24.6250   18.0294 C.3     1  UNL1        0.0932
      6 C          17.8042  -24.3757   17.9451 C.3     1  UNL1        0.0787
      7 C          17.0777  -25.6956   17.9135 C.2     1  UNL1        0.1735
      8 O          17.3763  -26.5711   18.6979 O.2     1  UNL1       -0.2913
      9 C          13.9939  -26.3485   15.0847 C.ar    1  UNL1        0.1386
     10 C          14.9314  -25.3443   14.8684 C.ar    1  UNL1        0.0370
     11 C          15.9317  -25.1287   15.7812 C.ar    1  UNL1        0.0060
     12 C          16.0082  -25.9218   16.9328 C.ar    1  UNL1        0.0349
     13 C          15.0616  -26.9317   17.1458 C.ar    1  UNL1        0.0060
     14 C          14.0654  -27.1390   16.2268 C.ar    1  UNL1        0.0370
     15 O          13.0062  -26.5577   14.1785 O.3     1  UNL1       -0.4755
     16 C          13.1325  -27.7037   13.3343 C.3     1  UNL1        0.2054
     17 C          10.6660  -27.4158   13.6095 C.3     1  UNL1        0.0040
     18 C          11.7719  -28.3904   13.1996 C.3     1  UNL1        0.0473
     19 C          19.9178  -23.4902   14.4239 C.3     1  UNL1        0.1170
     20 C          20.5091  -22.1082   14.3189 C.ar    1  UNL1        0.0035
     21 C          20.7459  -21.5555   13.0681 C.ar    1  UNL1        0.0016
     22 C          21.2862  -20.2926   12.9532 C.ar    1  UNL1        0.0456
     23 C          21.5951  -19.5699   14.0977 C.ar    1  UNL1        0.1824
     24 C          21.3551  -20.1299   15.3639 C.ar    1  UNL1        0.1822
     25 C          20.8015  -21.4097   15.4559 C.ar    1  UNL1        0.0435
     26 N          21.7478  -19.2112   16.2834 N.ar    1  UNL1       -0.2297
     27 C          22.2010  -18.1525   15.6780 C.ar    1  UNL1        0.3717
     28 N          22.1303  -18.3188   14.3297 N.ar    1  UNL1       -0.2297
     29 H          21.6974  -19.3284   17.2596 H       1  UNL1        0.3116
     30 H          22.4091  -17.6676   13.6461 H       1  UNL1        0.3116
     31 C          18.8580  -23.6650   13.3669 C.ar    1  UNL1       -0.0003
     32 C          19.0638  -24.5444   12.3205 C.ar    1  UNL1       -0.0024
     33 C          18.0898  -24.7080   11.3533 C.ar    1  UNL1       -0.0003
     34 C          16.9137  -23.9852   11.4276 C.ar    1  UNL1       -0.0000
     35 C          16.7101  -23.1019   12.4711 C.ar    1  UNL1       -0.0003
     36 C          17.6823  -22.9416   13.4407 C.ar    1  UNL1       -0.0024
@<TRIPOS>UNITY_ATOM_ATTR
26 1
charge 1
@<TRIPOS>BOND
     1    17    18    1
     2    18    16    1
     3    16    15    1
     4    15     9    1
     5     9    14   ar
     6     9    10   ar
     7    10    11   ar
     8    11    12   ar
     9    12    13   ar
    10    12     7    1
    11    13    14   ar
    12     7     8    2
    13     7     6    1
    14     6     5    1
    15     5     1    1
    16     1     2    2
    17     1     3   am
    18     3    19    1
    19    19    31    1
    20    19    20    1
    21    31    36   ar
    22    31    32   ar
    23    32    33   ar
    24    33    34   ar
    25    34    35   ar
    26    35    36   ar
    27    20    25   ar
    28    20    21   ar
    29    21    22   ar
    30    22    23   ar
    31    23    28   ar
    32    23    24   ar
    33    24    25   ar
    34    24    26   ar
    35    26    27   ar
    36    27    28   ar
    37     3     4    1
    38    26    29    1
    39    28    30    1
#	Name:			ZINC12528835
#	Creating user name:	trannguyen
#	Creation time:		Wed Dec  7 14:36:19 2022


#	Modifying user name:	trannguyen
#	Modification time:	Wed Dec  7 14:36:19 2022

@<TRIPOS>MOLECULE
ZINC12528835
 40 42 0 0 0
SMALL
GASTEIGER

@<TRIPOS>ATOM
      1 C          17.2323  -25.4366   16.9685 C.2     1  UNL1        0.2708
      2 O          17.5293  -24.2744   17.1471 O.2     1  UNL1       -0.2707
      3 N          17.1129  -25.9166   15.7148 N.am    1  UNL1       -0.2807
      4 H          16.9363  -26.8742   15.5691 H       1  UNL1        0.1550
      5 C          17.2393  -25.0581   14.6253 C.ar    1  UNL1        0.0548
      6 C          18.4938  -24.7751   14.1020 C.ar    1  UNL1        0.0148
      7 C          18.6165  -23.9273   13.0196 C.ar    1  UNL1        0.0013
      8 C          17.4935  -23.3456   12.4537 C.ar    1  UNL1        0.0002
      9 C          16.2408  -23.6108   12.9630 C.ar    1  UNL1        0.0058
     10 C          16.1005  -24.4704   14.0551 C.ar    1  UNL1        0.0668
     11 C          14.7624  -24.7583   14.6057 C.2     1  UNL1        0.2472
     12 O          14.0756  -23.8532   15.0388 O.2     1  UNL1       -0.2701
     13 N          14.3013  -26.0244   14.6286 N.am    1  UNL1       -0.2987
     14 H          14.8574  -26.7573   14.2780 H       1  UNL1        0.1500
     15 C          12.9724  -26.3103   15.1752 C.3     1  UNL1        0.0944
     16 C          13.1154  -26.9096   16.5758 C.3     1  UNL1        0.0262
     17 C          12.2611  -27.2913   14.2793 C.ar    1  UNL1       -0.0045
     18 C          12.9517  -28.3590   13.7374 C.ar    1  UNL1       -0.0027
     19 C          12.2981  -29.2613   12.9191 C.ar    1  UNL1       -0.0003
     20 C          10.9559  -29.0906   12.6354 C.ar    1  UNL1       -0.0000
     21 C          10.2666  -28.0198   13.1730 C.ar    1  UNL1       -0.0003
     22 C          10.9192  -27.1201   13.9949 C.ar    1  UNL1       -0.0027
     23 C          16.9965  -26.3440   18.1484 C.3     1  UNL1        0.2927
     24 O          16.5740  -25.5531   19.2904 O.3     1  UNL1       -0.4383
     25 C          17.4944  -25.3084   20.2363 C.2     1  UNL1        0.3189
     26 O          17.4009  -24.3234   20.9298 O.2     1  UNL1       -0.2500
     27 C          18.6443  -26.2623   20.4332 C.3     1  UNL1        0.1283
     28 C          19.9655  -25.5147   20.2428 C.3     1  UNL1        0.1031
     29 N          19.8016  -24.4885   19.2102 N.3     1  UNL1       -0.1788
     30 H          18.9686  -24.7378   18.6770 H       1  UNL1        0.1488
     31 S          21.0103  -24.2198   18.1106 S.O2    1  UNL1        0.0602
     32 O          20.8689  -25.2103   17.1015 O.2     1  UNL1       -0.1530
     33 O          22.2091  -24.0578   18.8562 O.2     1  UNL1       -0.1530
     34 C          20.7230  -21.1613   13.8818 C.3     1  UNL1        0.0311
     35 C          20.5665  -21.3126   15.3730 C.ar    1  UNL1       -0.0205
     36 C          20.1641  -20.2341   16.1388 C.ar    1  UNL1       -0.0042
     37 C          20.0151  -20.3743   17.5057 C.ar    1  UNL1        0.0010
     38 C          20.2736  -21.5916   18.1080 C.ar    1  UNL1        0.0199
     39 C          20.6809  -22.6684   17.3431 C.ar    1  UNL1        0.1216
     40 C          20.8304  -22.5280   15.9759 C.ar    1  UNL1        0.0156
@<TRIPOS>BOND
     1    34    35    1
     2    35    40   ar
     3    35    36   ar
     4    36    37   ar
     5    37    38   ar
     6    38    39   ar
     7    39    40   ar
     8    39    31    1
     9    31    32    2
    10    31    33    2
    11    31    29    1
    12    29    28    1
    13    28    27    1
    14    27    25    1
    15    25    26    2
    16    25    24    1
    17    24    23    1
    18    23     1    1
    19     1     2    2
    20     1     3   am
    21     3     5    1
    22     5    10   ar
    23     5     6   ar
    24     6     7   ar
    25     7     8   ar
    26     8     9   ar
    27     9    10   ar
    28    10    11    1
    29    11    12    2
    30    11    13   am
    31    13    15    1
    32    15    16    1
    33    15    17    1
    34    17    22   ar
    35    17    18   ar
    36    18    19   ar
    37    19    20   ar
    38    20    21   ar
    39    21    22   ar
    40    29    30    1
    41     3     4    1
    42    13    14    1
#	Name:			ZINC12529047
#	Creating user name:	trannguyen
#	Creation time:		Wed Dec  7 14:36:20 2022


#	Modifying user name:	trannguyen
#	Modification time:	Wed Dec  7 14:36:20 2022

@<TRIPOS>MOLECULE
ZINC12529047
 38 40 0 0 0
SMALL
GASTEIGER

@<TRIPOS>ATOM
      1 C          18.8667  -25.3261   14.1970 C.ar    1  UNL1        0.1412
      2 C          17.6362  -24.7426   14.4277 C.ar    1  UNL1        0.0456
      3 C          16.8629  -24.3129   13.3650 C.ar    1  UNL1        0.1443
      4 C          17.3183  -24.4660   12.0680 C.ar    1  UNL1        0.0255
      5 C          18.5499  -25.0436   11.8306 C.ar    1  UNL1        0.0189
      6 C          19.3269  -25.4813   12.8958 C.ar    1  UNL1        0.0801
      7 S          19.8512  -25.8734   15.5520 S.O2    1  UNL1        0.0749
      8 O          19.0366  -25.7743   16.7120 O.2     1  UNL1       -0.1499
      9 O          20.4560  -27.0941   15.1477 O.2     1  UNL1       -0.1499
     10 N          21.0780  -24.7770   15.7400 N.pl3   1  UNL1       -0.2153
     11 H          22.0132  -25.0585   15.6157 H       1  UNL1        0.1737
     12 C          19.8951  -19.4006   17.1011 C.3     1  UNL1        0.0310
     13 C          20.2088  -20.8294   16.7392 C.ar    1  UNL1       -0.0221
     14 C          20.0220  -21.8342   17.6710 C.ar    1  UNL1       -0.0030
     15 C          20.3093  -23.1443   17.3431 C.ar    1  UNL1        0.0152
     16 C          20.7859  -23.4528   16.0750 C.ar    1  UNL1        0.0608
     17 C          20.9769  -22.4408   15.1432 C.ar    1  UNL1       -0.0075
     18 C          20.6831  -21.1329   15.4763 C.ar    1  UNL1       -0.0073
     19 C          21.4997  -22.7699   13.7686 C.3     1  UNL1        0.0324
     20 N          15.5452  -23.6872   13.6160 N.pl3   1  UNL1        0.0577
     21 O          15.1697  -22.7589   12.9226 O.2     1  UNL1       -0.1261
     22 O          14.8364  -24.1005   14.5163 O.2     1  UNL1       -0.1261
     23 N          20.5708  -26.0710   12.6590 N.pl3   1  UNL1       -0.2627
     24 H          21.3866  -25.6666   13.0336 H       1  UNL1        0.1701
     25 N          20.6575  -27.2379   11.8885 N.am    1  UNL1       -0.2476
     26 H          20.0663  -27.3593   11.1108 H       1  UNL1        0.1717
     27 C          21.5503  -28.1942   12.2121 C.2     1  UNL1        0.1510
     28 S          21.0665  -29.8358   12.2609 S.2     1  UNL1       -0.0171
     29 N          22.8254  -27.8589   12.4919 N.am    1  UNL1       -0.2950
     30 H          23.1837  -27.9987   13.3981 H       1  UNL1        0.1539
     31 C          23.6398  -27.3123   11.4945 C.ar    1  UNL1        0.0452
     32 C          23.7828  -27.9656   10.2771 C.ar    1  UNL1        0.0101
     33 C          24.5837  -27.4209    9.2928 C.ar    1  UNL1       -0.0206
     34 C          25.2510  -26.2314    9.5218 C.ar    1  UNL1       -0.0045
     35 C          25.1150  -25.5813   10.7345 C.ar    1  UNL1       -0.0034
     36 C          24.3115  -26.1183   11.7215 C.ar    1  UNL1       -0.0084
     37 C          24.1637  -25.4091   13.0428 C.3     1  UNL1        0.0323
     38 C          24.7353  -28.1263    7.9698 C.3     1  UNL1        0.0311
@<TRIPOS>BOND
     1    12    13    1
     2    13    18   ar
     3    13    14   ar
     4    14    15   ar
     5    15    16   ar
     6    16    17   ar
     7    16    10    1
     8    17    18   ar
     9    17    19    1
    10    10     7    1
    11     7     8    2
    12     7     9    2
    13     7     1    1
    14     1     6   ar
    15     1     2   ar
    16     2     3   ar
    17     3     4   ar
    18     3    20    1
    19     4     5   ar
    20     5     6   ar
    21     6    23    1
    22    23    25    1
    23    25    27    1
    24    27    28    2
    25    27    29    1
    26    29    31    1
    27    31    36   ar
    28    31    32   ar
    29    32    33   ar
    30    33    34   ar
    31    33    38    1
    32    34    35   ar
    33    35    36   ar
    34    36    37    1
    35    20    21    2
    36    20    22    2
    37    10    11    1
    38    23    24    1
    39    25    26    1
    40    29    30    1
#	Name:			ZINC12531277
#	Creating user name:	trannguyen
#	Creation time:		Wed Dec  7 14:36:20 2022


#	Modifying user name:	trannguyen
#	Modification time:	Wed Dec  7 14:36:20 2022

@<TRIPOS>MOLECULE
ZINC12531277
 34 36 0 0 0
SMALL
GASTEIGER

@<TRIPOS>ATOM
      1 C          20.2572  -21.8509   12.5563 C.3     1  UNL1        0.0775
      2 C          20.3661  -23.1564   13.3014 C.2     1  UNL1        0.1228
      3 C          20.8389  -23.1578   14.5550 C.2     1  UNL1        0.0923
      4 C          20.9587  -24.4249   15.3511 C.3     1  UNL1        0.0743
      5 C          20.8953  -25.6293   14.4556 C.3     1  UNL1        0.1858
      6 C          20.4171  -25.5294   13.1830 C.2     1  UNL1        0.2636
      7 N          20.0076  -24.3209   12.6786 N.2     1  UNL1       -0.2476
      8 N          20.3497  -26.6627   12.4052 N.pl3   1  UNL1       -0.2033
      9 C          21.3042  -27.7438   12.6491 C.3     1  UNL1        0.2876
     10 N          21.4748  -27.9207   14.0943 N.am    1  UNL1       -0.2606
     11 C          21.3367  -26.8765   14.9312 C.2     1  UNL1        0.2376
     12 O          21.5971  -27.0133   16.1142 O.2     1  UNL1       -0.2743
     13 H          19.4536  -24.2916   11.8653 H       1  UNL1        0.3105
     14 H          19.6708  -26.7444   11.6969 H       1  UNL1        0.2942
     15 H          21.6921  -28.8105   14.4551 H       1  UNL1        0.1539
     16 C          19.8283  -24.4998   16.3451 C.ar    1  UNL1       -0.0171
     17 C          20.0712  -24.2704   17.6863 C.ar    1  UNL1       -0.0042
     18 C          19.0336  -24.3345   18.5976 C.ar    1  UNL1       -0.0046
     19 C          17.7550  -24.6379   18.1687 C.ar    1  UNL1       -0.0225
     20 C          17.5132  -24.8729   16.8281 C.ar    1  UNL1       -0.0046
     21 C          18.5498  -24.8037   15.9162 C.ar    1  UNL1       -0.0042
     22 C          16.6249  -24.7129   19.1627 C.3     1  UNL1        0.0224
     23 C          16.1850  -26.1692   19.3261 C.3     1  UNL1        0.0047
     24 C          17.0958  -24.1678   20.5125 C.3     1  UNL1        0.0047
     25 C          21.2217  -21.9332   15.1494 C.2     1  UNL1        0.3410
     26 O          22.3861  -21.5807   15.1205 O.2     1  UNL1       -0.2451
     27 O          20.2957  -21.1556   15.7485 O.3     1  UNL1       -0.4406
     28 C          20.7354  -20.3507   16.8445 C.3     1  UNL1        0.2352
     29 C          20.5079  -18.8962   16.5226 C.2     1  UNL1        0.0208
     30 C          21.4364  -18.2091   15.9047 C.2     1  UNL1       -0.0011
     31 S          22.8963  -27.3085   11.8964 S.3     1  UNL1       -0.0694
     32 C          22.9980  -28.3784   10.4350 C.3     1  UNL1        0.0889
     33 C          24.1566  -27.9448    9.5745 C.2     1  UNL1       -0.0143
     34 C          24.5390  -26.6918    9.5739 C.2     1  UNL1       -0.0040
@<TRIPOS>UNITY_ATOM_ATTR
7 1
charge 1
@<TRIPOS>BOND
     1     1     2    1
     2     2     3    2
     3     2     7    1
     4     3     4    1
     5     3    25    1
     6     4     5    1
     7     4    16    1
     8     5    11    1
     9     5     6    1
    10     6     8    1
    11     6     7    2
    12     8     9    1
    13     9    10    1
    14     9    31    1
    15    10    11   am
    16    11    12    2
    17    31    32    1
    18    32    33    1
    19    33    34    2
    20    16    21   ar
    21    16    17   ar
    22    17    18   ar
    23    18    19   ar
    24    19    20   ar
    25    19    22    1
    26    20    21   ar
    27    22    23    1
    28    22    24    1
    29    25    26    2
    30    25    27    1
    31    27    28    1
    32    28    29    1
    33    29    30    2
    34     7    13    1
    35     8    14    1
    36    10    15    1
#	Name:			ZINC12547571
#	Creating user name:	trannguyen
#	Creation time:		Wed Dec  7 14:36:20 2022


#	Modifying user name:	trannguyen
#	Modification time:	Wed Dec  7 14:36:20 2022

@<TRIPOS>MOLECULE
ZINC12547571
 38 42 0 0 0
SMALL
GASTEIGER

@<TRIPOS>ATOM
      1 C          17.1826  -24.7691   14.6582 C.ar    1  UNL1        0.1026
      2 C          18.3630  -24.1660   14.9710 C.ar    1  UNL1       -0.0046
      3 C          19.1536  -24.6773   16.0087 C.ar    1  UNL1        0.0552
      4 C          20.4083  -24.2122   16.5004 C.ar    1  UNL1        0.1529
      5 N          20.9841  -24.8506   17.5039 N.ar    1  UNL1       -0.2075
      6 C          20.4427  -25.9163   18.0663 C.ar    1  UNL1        0.1971
      7 N          19.2836  -26.3965   17.6582 N.ar    1  UNL1       -0.2187
      8 C          18.6358  -25.8210   16.6670 C.ar    1  UNL1        0.1150
      9 S          17.1041  -26.1193   15.8228 S.2     1  UNL1       -0.0617
     10 C          18.8174  -22.9515   14.2033 C.3     1  UNL1        0.0319
     11 N          21.0158  -23.0992   15.9346 N.ar    1  UNL1       -0.2633
     12 C          20.7562  -21.7712   16.2450 C.ar    1  UNL1        0.0855
     13 C          19.8958  -21.1423   17.1308 C.ar    1  UNL1        0.0192
     14 C          19.8738  -19.7644   17.2058 C.ar    1  UNL1        0.0016
     15 C          20.7080  -19.0040   16.4004 C.ar    1  UNL1        0.0016
     16 C          21.5693  -19.6127   15.5146 C.ar    1  UNL1        0.0207
     17 C          21.6031  -21.0064   15.4265 C.ar    1  UNL1        0.1003
     18 N          22.3250  -21.8763   14.6707 N.ar    1  UNL1       -0.2134
     19 C          21.9884  -23.1055   14.9694 C.ar    1  UNL1        0.2030
     20 N          22.5286  -24.2367   14.3962 N.pl3   1  UNL1       -0.3017
     21 H          23.4116  -24.5616   14.6860 H       1  UNL1        0.1497
     22 C          21.7889  -24.9553   13.3557 C.3     1  UNL1        0.1214
     23 C          21.5973  -26.4126   13.7804 C.3     1  UNL1        0.1583
     24 O          22.1987  -26.6188   15.0602 O.3     1  UNL1       -0.3802
     25 H          23.1465  -26.4191   15.0080 H       1  UNL1        0.2105
     26 C          16.2143  -24.3998   13.6203 C.2     1  UNL1        0.3470
     27 O          15.2753  -23.6774   13.8943 O.2     1  UNL1       -0.2443
     28 O          16.3652  -24.8614   12.3622 O.3     1  UNL1       -0.4451
     29 C          17.9481  -23.8602   10.8058 C.3     1  UNL1        0.0513
     30 C          16.5033  -23.8715   11.3089 C.3     1  UNL1        0.2089
     31 C          21.1623  -26.5951   19.2031 C.3     1  UNL1        0.1720
     32 C          22.7022  -28.1913   18.2328 C.3     1  UNL1        0.1058
     33 C          22.8472  -29.6436   17.7724 C.3     1  UNL1        0.0611
     34 C          22.7147  -30.5729   18.9822 C.3     1  UNL1        0.0122
     35 C          21.3633  -30.3275   19.6589 C.3     1  UNL1        0.0611
     36 C          21.2612  -28.8554   20.0645 C.3     1  UNL1        0.1058
     37 N          21.3716  -28.0152   18.8531 N.4     1  UNL1        0.2817
     38 H          20.6554  -28.3020   18.1859 H       1  UNL1        0.2072
@<TRIPOS>UNITY_ATOM_ATTR
37 1
charge 1
@<TRIPOS>BOND
     1    29    30    1
     2    30    28    1
     3    28    26    1
     4    26    27    2
     5    26     1    1
     6     1     9   ar
     7     1     2   ar
     8     2     3   ar
     9     2    10    1
    10     3     8   ar
    11     3     4   ar
    12     4     5   ar
    13     4    11    1
    14     5     6   ar
    15     6     7   ar
    16     6    31    1
    17     7     8   ar
    18     8     9   ar
    19    31    37    1
    20    32    33    1
    21    32    37    1
    22    33    34    1
    23    34    35    1
    24    35    36    1
    25    36    37    1
    26    11    19   ar
    27    11    12   ar
    28    12    17   ar
    29    12    13   ar
    30    13    14   ar
    31    14    15   ar
    32    15    16   ar
    33    16    17   ar
    34    17    18   ar
    35    18    19   ar
    36    19    20    1
    37    20    22    1
    38    22    23    1
    39    23    24    1
    40    20    21    1
    41    24    25    1
    42    37    38    1
#	Name:			ZINC12554611
#	Creating user name:	trannguyen
#	Creation time:		Wed Dec  7 14:36:20 2022


#	Modifying user name:	trannguyen
#	Modification time:	Wed Dec  7 14:36:20 2022

@<TRIPOS>MOLECULE
ZINC12554611
 33 35 0 0 0
SMALL
GASTEIGER

@<TRIPOS>ATOM
      1 C          23.2805  -28.1018   11.3373 C.ar    1  UNL1        0.1026
      2 C          23.5383  -26.9298   11.9820 C.ar    1  UNL1       -0.0049
      3 C          22.6677  -26.4784   12.9820 C.ar    1  UNL1        0.0518
      4 C          22.7415  -25.2951   13.7768 C.ar    1  UNL1        0.1285
      5 N          21.7959  -25.0593   14.6713 N.ar    1  UNL1       -0.2109
      6 C          20.7858  -25.8881   14.8650 C.ar    1  UNL1        0.1969
      7 N          20.6606  -26.9980   14.1630 N.ar    1  UNL1       -0.2187
      8 C          21.5527  -27.3117   13.2460 C.ar    1  UNL1        0.1148
      9 S          21.7699  -28.6567   12.1094 S.2     1  UNL1       -0.0617
     10 N          23.7830  -24.4055   13.6103 N.pl3   1  UNL1       -0.3425
     11 C          24.7574  -26.1211   11.6203 C.3     1  UNL1        0.0319
     12 H          24.4836  -24.5870   12.9428 H       1  UNL1        0.1437
     13 H          23.8256  -23.5892   14.1591 H       1  UNL1        0.1437
     14 C          24.0534  -28.7484   10.2723 C.2     1  UNL1        0.3470
     15 O          25.0116  -29.4429   10.5522 O.2     1  UNL1       -0.2443
     16 O          23.7017  -28.5729    8.9820 O.3     1  UNL1       -0.4451
     17 C          24.8534  -26.6798    7.9722 C.3     1  UNL1        0.0513
     18 C          24.7571  -28.2045    8.0553 C.3     1  UNL1        0.2089
     19 C          19.7496  -25.5552   15.9075 C.3     1  UNL1        0.1727
     20 C          20.7357  -25.1389   18.0793 C.3     1  UNL1        0.1680
     21 N          20.2968  -24.5208   16.8104 N.4     1  UNL1        0.2896
     22 H          21.0997  -24.0801   16.3613 H       1  UNL1        0.2078
     23 C          19.2715  -23.4906   17.0785 C.3     1  UNL1        0.1335
     24 C          19.8081  -22.1483   16.6525 C.ar    1  UNL1        0.0326
     25 C          20.1964  -21.9435   15.3416 C.ar    1  UNL1        0.0013
     26 C          20.6882  -20.7123   14.9508 C.ar    1  UNL1        0.0037
     27 C          20.7913  -19.6855   15.8706 C.ar    1  UNL1        0.0714
     28 C          20.4029  -19.8902   17.1813 C.ar    1  UNL1        0.0037
     29 C          19.9111  -21.1215   17.5723 C.ar    1  UNL1        0.0013
     30 C          21.3275  -18.3431   15.4444 C.3     1  UNL1        0.4186
     31 F          21.5785  -18.3568   14.0681 F       1  UNL1       -0.1659
     32 F          20.3859  -17.3507   15.7369 F       1  UNL1       -0.1659
     33 F          22.5159  -18.0759   16.1324 F       1  UNL1       -0.1659
@<TRIPOS>UNITY_ATOM_ATTR
21 1
charge 1
@<TRIPOS>BOND
     1    17    18    1
     2    18    16    1
     3    16    14    1
     4    14    15    2
     5    14     1    1
     6     1     9   ar
     7     1     2   ar
     8     2     3   ar
     9     2    11    1
    10     3     8   ar
    11     3     4   ar
    12     4     5   ar
    13     4    10    1
    14     5     6   ar
    15     6     7   ar
    16     6    19    1
    17     7     8   ar
    18     8     9   ar
    19    19    21    1
    20    20    21    1
    21    23    24    1
    22    23    21    1
    23    24    29   ar
    24    24    25   ar
    25    25    26   ar
    26    26    27   ar
    27    27    28   ar
    28    27    30    1
    29    28    29   ar
    30    30    31    1
    31    30    32    1
    32    30    33    1
    33    10    12    1
    34    10    13    1
    35    21    22    1
#	Name:			ZINC12573487
#	Creating user name:	trannguyen
#	Creation time:		Wed Dec  7 14:36:19 2022


#	Modifying user name:	trannguyen
#	Modification time:	Wed Dec  7 14:36:19 2022

@<TRIPOS>MOLECULE
ZINC12573487
 38 40 0 0 0
SMALL
GASTEIGER

@<TRIPOS>ATOM
      1 C          20.4922  -22.0145   16.7665 C.ar    1  UNL1        0.0769
      2 C          20.2706  -20.9240   17.5984 C.ar    1  UNL1        0.0188
      3 C          20.6604  -19.6615   17.1975 C.ar    1  UNL1        0.0255
      4 C          21.2768  -19.4827   15.9723 C.ar    1  UNL1        0.1442
      5 C          21.5044  -20.5667   15.1448 C.ar    1  UNL1        0.0423
      6 C          21.1166  -21.8323   15.5394 C.ar    1  UNL1        0.1054
      7 S          21.4072  -23.2130   14.4839 S.O2    1  UNL1       -0.0565
      8 O          21.4036  -22.7147   13.1531 O.2     1  UNL1       -0.1841
      9 O          22.5141  -23.9165   15.0310 O.2     1  UNL1       -0.1841
     10 N          20.0963  -24.2158   14.6174 N.pl3   1  UNL1       -0.5357
     11 C          19.1012  -24.1900   13.6497 C.ar    1  UNL1       -0.1112
     12 C          18.3319  -23.0471   13.4690 C.ar    1  UNL1       -0.0238
     13 C          17.3468  -23.0224   12.5035 C.ar    1  UNL1       -0.0019
     14 C          17.1090  -24.1371   11.7143 C.ar    1  UNL1       -0.0001
     15 C          17.8573  -25.2810   11.8817 C.ar    1  UNL1       -0.0007
     16 C          18.8629  -25.3207   12.8521 C.ar    1  UNL1       -0.0081
     17 C          19.6668  -26.5410   13.0369 C.2     1  UNL1        0.0711
     18 O          19.3114  -27.3880   13.8327 O.co2   1  UNL1       -0.5447
     19 O          20.7963  -26.7183   12.3236 O.co2   1  UNL1       -0.5447
     20 N          21.6932  -18.1278   15.5460 N.pl3   1  UNL1        0.0577
     21 O          21.8433  -17.2479   16.3748 O.2     1  UNL1       -0.1261
     22 O          21.8857  -17.8927   14.3666 O.2     1  UNL1       -0.1261
     23 N          20.0936  -23.2922   17.1662 N.pl3   1  UNL1       -0.2628
     24 H          19.1510  -23.5630   17.0807 H       1  UNL1        0.1700
     25 N          21.0352  -24.1883   17.6887 N.am    1  UNL1       -0.2479
     26 H          21.9237  -23.8646   17.9624 H       1  UNL1        0.1717
     27 C          20.7247  -25.4936   17.8165 C.2     1  UNL1        0.1473
     28 S          21.1772  -26.3467   19.2302 S.2     1  UNL1       -0.0174
     29 N          20.0580  -26.1273   16.8315 N.am    1  UNL1       -0.3147
     30 H          20.3758  -26.0635   15.9018 H       1  UNL1        0.1485
     31 C          18.8604  -26.9110   17.1440 C.3     1  UNL1        0.0931
     32 C          17.7167  -25.9668   17.5201 C.3     1  UNL1        0.0475
     33 C          14.9528  -25.7139   14.2730 C.ar    1  UNL1       -0.0000
     34 C          15.2545  -24.5862   15.0132 C.ar    1  UNL1       -0.0003
     35 C          16.1487  -24.6680   16.0642 C.ar    1  UNL1       -0.0042
     36 C          16.7416  -25.8776   16.3746 C.ar    1  UNL1       -0.0205
     37 C          16.4442  -27.0043   15.6308 C.ar    1  UNL1       -0.0042
     38 C          15.5460  -26.9234   14.5831 C.ar    1  UNL1       -0.0003
@<TRIPOS>UNITY_ATOM_ATTR
10 1
charge -1
19 1
charge -1
@<TRIPOS>BOND
     1    33    38   ar
     2    33    34   ar
     3    34    35   ar
     4    35    36   ar
     5    36    37   ar
     6    36    32    1
     7    37    38   ar
     8    32    31    1
     9    31    29    1
    10    29    27    1
    11    27    28    2
    12    27    25    1
    13    25    23    1
    14    23     1    1
    15     1     6   ar
    16     1     2   ar
    17     2     3   ar
    18     3     4   ar
    19     4     5   ar
    20     4    20    1
    21     5     6   ar
    22     6     7    1
    23     7     8    2
    24     7     9    2
    25     7    10    1
    26    10    11    1
    27    11    16   ar
    28    11    12   ar
    29    12    13   ar
    30    13    14   ar
    31    14    15   ar
    32    15    16   ar
    33    16    17    1
    34    17    18   ar
    35    17    19   ar
    36    20    21    2
    37    20    22    2
    38    29    30    1
    39    25    26    1
    40    23    24    1
#	Name:			ZINC12647582
#	Creating user name:	trannguyen
#	Creation time:		Wed Dec  7 14:36:19 2022


#	Modifying user name:	trannguyen
#	Modification time:	Wed Dec  7 14:36:19 2022

@<TRIPOS>MOLECULE
ZINC12647582
 38 40 0 0 0
SMALL
GASTEIGER

@<TRIPOS>ATOM
      1 C          20.3721  -22.2354   13.6076 C.2     1  UNL1        0.3398
      2 O          21.2357  -23.0777   13.4612 O.2     1  UNL1       -0.2449
      3 C          20.6647  -21.0037   14.3604 C.ar    1  UNL1        0.0537
      4 C          21.2519  -19.9095   13.7183 C.ar    1  UNL1        0.0046
      5 C          21.5284  -18.7630   14.4295 C.ar    1  UNL1        0.0001
      6 C          21.2229  -18.6849   15.7794 C.ar    1  UNL1       -0.0019
      7 C          20.6380  -19.7537   16.4265 C.ar    1  UNL1       -0.0236
      8 C          20.3511  -20.9193   15.7264 C.ar    1  UNL1       -0.1060
      9 N          19.7629  -21.9963   16.3754 N.pl3   1  UNL1       -0.5356
     10 S          20.6169  -22.8449   17.5124 S.O2    1  UNL1       -0.0577
     11 O          21.2398  -21.8837   18.3535 O.2     1  UNL1       -0.1842
     12 O          21.3553  -23.8352   16.8101 O.2     1  UNL1       -0.1842
     13 C          19.4455  -23.7034   18.5102 C.ar    1  UNL1        0.0905
     14 C          18.0970  -23.4202   18.3907 C.ar    1  UNL1        0.0170
     15 C          17.1746  -24.0915   19.1717 C.ar    1  UNL1        0.0025
     16 C          17.5973  -25.0470   20.0751 C.ar    1  UNL1        0.0142
     17 C          18.9512  -25.3298   20.2017 C.ar    1  UNL1        0.0428
     18 C          19.8750  -24.6578   19.4110 C.ar    1  UNL1        0.0310
     19 N          19.3826  -26.2917   21.1180 N.pl3   1  UNL1       -0.3570
     20 H          18.7270  -26.7672   21.6778 H       1  UNL1        0.1424
     21 H          20.3422  -26.4941   21.2041 H       1  UNL1        0.1424
     22 O          19.1465  -22.4285   13.0814 O.3     1  UNL1       -0.4398
     23 C          18.2778  -23.3063   10.9826 C.3     1  UNL1        0.0575
     24 C          18.9410  -23.6467   12.3186 C.3     1  UNL1        0.2447
     25 C          18.0521  -24.5826   13.0965 C.2     1  UNL1        0.2664
     26 O          18.0126  -25.7603   12.8094 O.2     1  UNL1       -0.2709
     27 N          17.3008  -24.1108   14.1112 N.am    1  UNL1       -0.2810
     28 H          17.2726  -23.1439   14.2947 H       1  UNL1        0.1550
     29 C          16.5610  -24.9951   14.9039 C.ar    1  UNL1        0.0503
     30 C          17.2012  -25.7801   15.8543 C.ar    1  UNL1        0.0147
     31 C          16.4683  -26.6520   16.6349 C.ar    1  UNL1        0.0012
     32 C          15.0980  -26.7441   16.4714 C.ar    1  UNL1        0.0039
     33 C          14.4578  -25.9641   15.5262 C.ar    1  UNL1        0.0726
     34 C          15.1845  -25.0858   14.7461 C.ar    1  UNL1        0.0185
     35 C          12.9644  -26.0674   15.3516 C.3     1  UNL1        0.4186
     36 F          12.4073  -24.7842   15.3322 F       1  UNL1       -0.1659
     37 F          12.6797  -26.7175   14.1460 F       1  UNL1       -0.1659
     38 F          12.4199  -26.7962   16.4144 F       1  UNL1       -0.1659
@<TRIPOS>UNITY_ATOM_ATTR
9 1
charge -1
@<TRIPOS>BOND
     1    23    24    1
     2    24    25    1
     3    24    22    1
     4    25    26    2
     5    25    27   am
     6    27    29    1
     7    29    34   ar
     8    29    30   ar
     9    30    31   ar
    10    31    32   ar
    11    32    33   ar
    12    33    34   ar
    13    33    35    1
    14    35    36    1
    15    35    37    1
    16    35    38    1
    17    22     1    1
    18     1     2    2
    19     1     3    1
    20     3     8   ar
    21     3     4   ar
    22     4     5   ar
    23     5     6   ar
    24     6     7   ar
    25     7     8   ar
    26     8     9    1
    27     9    10    1
    28    10    11    2
    29    10    12    2
    30    10    13    1
    31    13    18   ar
    32    13    14   ar
    33    14    15   ar
    34    15    16   ar
    35    16    17   ar
    36    17    18   ar
    37    17    19    1
    38    27    28    1
    39    19    20    1
    40    19    21    1
#	Name:			ZINC12658489
#	Creating user name:	trannguyen
#	Creation time:		Wed Dec  7 14:36:19 2022


#	Modifying user name:	trannguyen
#	Modification time:	Wed Dec  7 14:36:19 2022

@<TRIPOS>MOLECULE
ZINC12658489
 42 45 0 0 0
SMALL
GASTEIGER

@<TRIPOS>ATOM
      1 C          20.1530  -26.0361   14.3636 C.2     1  UNL1        0.0193
      2 C          19.4420  -24.8886   14.4693 C.2     1  UNL1        0.1046
      3 C          23.8936  -26.0361   12.3641 C.ar    1  UNL1        0.1384
      4 C          23.6343  -25.0892   13.3479 C.ar    1  UNL1        0.0369
      5 C          22.4216  -25.0848   14.0001 C.ar    1  UNL1        0.0032
      6 C          21.4492  -26.0361   13.6707 C.ar    1  UNL1        0.0016
      7 C          21.7177  -26.9911   12.6833 C.ar    1  UNL1        0.0032
      8 C          22.9318  -26.9833   12.0336 C.ar    1  UNL1        0.0369
      9 O          25.0912  -26.0362   11.7240 O.3     1  UNL1       -0.4792
     10 C          25.6074  -26.4783    9.4048 C.3     1  UNL1        0.0472
     11 C          25.3224  -27.0842   10.7805 C.3     1  UNL1        0.1661
     12 C          26.5240  -27.9184   11.2291 C.3     1  UNL1        0.0472
     13 C          18.0835  -24.9153   15.0271 C.2     1  UNL1        0.2594
     14 O          17.1233  -24.7488   14.2985 O.2     1  UNL1       -0.2688
     15 N          17.9006  -25.1244   16.3459 N.am    1  UNL1       -0.2992
     16 H          18.6716  -25.3264   16.9239 H       1  UNL1        0.1498
     17 C          16.5545  -25.0509   16.9193 C.3     1  UNL1        0.1025
     18 C          16.0754  -26.4591   17.2778 C.3     1  UNL1        0.1365
     19 C          14.9182  -26.8374   16.3895 C.ar    1  UNL1        0.2670
     20 N          15.0081  -27.0813   15.0543 N.ar    1  UNL1       -0.2397
     21 C          13.7395  -27.3929   14.6076 C.ar    1  UNL1        0.1820
     22 C          13.2051  -27.7279   13.3708 C.ar    1  UNL1        0.0458
     23 C          11.8560  -27.9883   13.2578 C.ar    1  UNL1        0.0039
     24 C          11.0304  -27.9178   14.3711 C.ar    1  UNL1        0.0039
     25 C          11.5388  -27.5902   15.5960 C.ar    1  UNL1        0.0458
     26 C          12.9032  -27.3216   15.7345 C.ar    1  UNL1        0.1820
     27 N          13.6876  -26.9777   16.7880 N.ar    1  UNL1       -0.2397
     28 H          15.8261  -27.0429   14.5078 H       1  UNL1        0.3110
     29 H          13.3731  -26.8534   17.7126 H       1  UNL1        0.3110
     30 N          20.0013  -23.6777   14.0472 N.am    1  UNL1       -0.2768
     31 C          20.2712  -22.7105   14.9462 C.2     1  UNL1        0.2496
     32 O          20.1177  -22.9238   16.1333 O.2     1  UNL1       -0.2698
     33 H          20.1977  -23.5321   13.0935 H       1  UNL1        0.1553
     34 C          20.7538  -21.3903   14.4890 C.ar    1  UNL1        0.0553
     35 C          20.9078  -21.1339   13.1253 C.ar    1  UNL1        0.0046
     36 C          21.3540  -19.8983   12.7051 C.ar    1  UNL1        0.0018
     37 C          21.6588  -18.9173   13.6324 C.ar    1  UNL1        0.0241
     38 C          21.5134  -19.1665   14.9854 C.ar    1  UNL1        0.1430
     39 C          21.0630  -20.3965   15.4189 C.ar    1  UNL1        0.0286
     40 N          21.8424  -18.1115   15.9700 N.pl3   1  UNL1        0.0577
     41 O          21.0045  -17.2824   16.2770 O.2     1  UNL1       -0.1261
     42 O          22.9508  -18.0722   16.4732 O.2     1  UNL1       -0.1261
@<TRIPOS>UNITY_ATOM_ATTR
27 1
charge 1
@<TRIPOS>BOND
     1    10    11    1
     2    11    12    1
     3    11     9    1
     4     9     3    1
     5     3     8   ar
     6     3     4   ar
     7     4     5   ar
     8     5     6   ar
     9     6     7   ar
    10     6     1    1
    11     7     8   ar
    12     1     2    2
    13     2    13    1
    14     2    30    1
    15    13    14    2
    16    13    15   am
    17    15    17    1
    18    17    18    1
    19    18    19    1
    20    19    27   ar
    21    19    20   ar
    22    20    21   ar
    23    21    26   ar
    24    21    22   ar
    25    22    23   ar
    26    23    24   ar
    27    24    25   ar
    28    25    26   ar
    29    26    27   ar
    30    30    31   am
    31    31    32    2
    32    31    34    1
    33    34    39   ar
    34    34    35   ar
    35    35    36   ar
    36    36    37   ar
    37    37    38   ar
    38    38    39   ar
    39    38    40    1
    40    40    41    2
    41    40    42    2
    42    15    16    1
    43    20    28    1
    44    27    29    1
    45    30    33    1
#	Name:			ZINC12900885
#	Creating user name:	trannguyen
#	Creation time:		Wed Dec  7 14:36:19 2022


#	Modifying user name:	trannguyen
#	Modification time:	Wed Dec  7 14:36:19 2022

@<TRIPOS>MOLECULE
ZINC12900885
 38 40 0 0 0
SMALL
GASTEIGER

@<TRIPOS>ATOM
      1 N          22.9457  -26.3372   12.5046 N.am    1  UNL1       -0.2290
      2 C          23.1366  -25.4240   13.4774 C.2     1  UNL1        0.2797
      3 O          24.2323  -25.3021   13.9903 O.2     1  UNL1       -0.2669
      4 H          22.0586  -26.4359   12.0893 H       1  UNL1        0.1732
      5 C          22.0164  -24.5727   13.9197 C.ar    1  UNL1        0.1419
      6 C          20.6474  -24.7437   13.5911 C.ar    1  UNL1       -0.0470
      7 C          19.9948  -23.7337   14.2212 C.ar    1  UNL1        0.0854
      8 N          20.9339  -23.0008   14.8796 N.ar    1  UNL1       -0.2294
      9 N          22.1003  -23.5051   14.6913 N.ar    1  UNL1       -0.1617
     10 O          20.1027  -25.7168   12.8114 O.co2   1  UNL1       -0.8708
     11 C          20.6672  -21.8621   15.6510 C.ar    1  UNL1        0.0867
     12 C          20.4028  -21.9875   17.0086 C.ar    1  UNL1        0.0191
     13 C          20.1407  -20.8632   17.7662 C.ar    1  UNL1        0.0015
     14 C          20.1414  -19.6132   17.1745 C.ar    1  UNL1        0.0000
     15 C          20.4043  -19.4849   15.8231 C.ar    1  UNL1        0.0054
     16 C          20.6724  -20.6053   15.0608 C.ar    1  UNL1        0.0891
     17 C          20.9651  -20.4641   13.5893 C.3     1  UNL1        0.4200
     18 F          21.1165  -19.1100   13.2719 F       1  UNL1       -0.1658
     19 F          22.1445  -21.1503   13.2804 F       1  UNL1       -0.1658
     20 F          19.9059  -21.0009   12.8496 F       1  UNL1       -0.1658
     21 C          24.6829  -26.8418   10.9569 C.2     1  UNL1        0.2559
     22 O          24.3673  -25.8683   10.3062 O.2     1  UNL1       -0.2718
     23 N          24.0098  -27.1458   12.0844 N.am    1  UNL1       -0.2322
     24 H          24.2660  -27.9361   12.6127 H       1  UNL1        0.1729
     25 C          26.3273  -27.2289    9.1418 C.3     1  UNL1        0.0313
     26 C          25.8275  -27.7116   10.5049 C.3     1  UNL1        0.1526
     27 N          25.3720  -29.0995   10.3946 N.am    1  UNL1       -0.2639
     28 C          26.1429  -30.1010   10.8628 C.2     1  UNL1        0.4023
     29 O          27.2157  -29.8526   11.3766 O.2     1  UNL1       -0.2264
     30 H          24.5029  -29.3008    9.9784 H       1  UNL1        0.1532
     31 O          25.7244  -31.3767   10.7613 O.3     1  UNL1       -0.4297
     32 C          24.3804  -31.5912   10.2553 C.3     1  UNL1        0.2367
     33 C          24.1173  -33.0706   10.1400 C.ar    1  UNL1        0.0213
     34 C          23.5005  -33.7458   11.1767 C.ar    1  UNL1       -0.0007
     35 C          23.2548  -35.1019   11.0689 C.ar    1  UNL1       -0.0002
     36 C          23.6349  -35.7846    9.9286 C.ar    1  UNL1       -0.0000
     37 C          24.2568  -35.1106    8.8943 C.ar    1  UNL1       -0.0002
     38 C          24.4978  -33.7535    8.9999 C.ar    1  UNL1       -0.0007
@<TRIPOS>UNITY_ATOM_ATTR
10 1
charge -1
@<TRIPOS>BOND
     1    25    26    1
     2    26    21    1
     3    26    27    1
     4    21    22    2
     5    21    23   am
     6    23     1    1
     7     1     2   am
     8     2     3    2
     9     2     5    1
    10     5     9   ar
    11     5     6   ar
    12     6     7   ar
    13     6    10    1
    14     7     8   ar
    15     8     9   ar
    16     8    11    1
    17    11    16   ar
    18    11    12   ar
    19    12    13   ar
    20    13    14   ar
    21    14    15   ar
    22    15    16   ar
    23    16    17    1
    24    17    18    1
    25    17    19    1
    26    17    20    1
    27    27    28   am
    28    28    29    2
    29    28    31    1
    30    31    32    1
    31    32    33    1
    32    33    38   ar
    33    33    34   ar
    34    34    35   ar
    35    35    36   ar
    36    36    37   ar
    37    37    38   ar
    38    23    24    1
    39     1     4    1
    40    27    30    1
#	Name:			ZINC12927653
#	Creating user name:	trannguyen
#	Creation time:		Wed Dec  7 14:36:20 2022


#	Modifying user name:	trannguyen
#	Modification time:	Wed Dec  7 14:36:20 2022

@<TRIPOS>MOLECULE
ZINC12927653
 43 46 0 0 0
SMALL
GASTEIGER

@<TRIPOS>ATOM
      1 N          19.9661  -25.9828   14.6854 N.am    1  UNL1       -0.2495
      2 C          20.5883  -27.0888   14.2269 C.2     1  UNL1        0.2742
      3 O          21.4133  -26.9979   13.3419 O.2     1  UNL1       -0.2705
      4 C          20.1932  -24.7366   14.0639 C.ar    1  UNL1        0.1404
      5 C          21.0568  -23.8190   14.6262 C.ar    1  UNL1        0.1283
      6 N          21.2580  -22.6127   13.9964 N.ar    1  UNL1       -0.2646
      7 C          20.6242  -22.3329   12.8431 C.ar    1  UNL1        0.3317
      8 O          20.8191  -21.2628   12.2994 O.2     1  UNL1       -0.2464
      9 N          19.7752  -23.2129   12.2832 N.ar    1  UNL1       -0.2733
     10 C          19.5430  -24.4084   12.8594 C.ar    1  UNL1        0.2774
     11 O          18.7744  -25.2007   12.3411 O.2     1  UNL1       -0.2656
     12 N          21.7079  -24.1066   15.8018 N.pl3   1  UNL1       -0.3427
     13 H          19.3182  -22.9808   11.4427 H       1  UNL1        0.1735
     14 H          21.5597  -24.9717   16.2477 H       1  UNL1        0.1437
     15 H          22.3227  -23.4475   16.1980 H       1  UNL1        0.1437
     16 C          22.1721  -21.6291   14.5821 C.3     1  UNL1        0.1384
     17 C          21.3866  -20.6424   15.4070 C.ar    1  UNL1        0.0006
     18 C          20.6348  -21.0826   16.4805 C.ar    1  UNL1       -0.0024
     19 C          19.9183  -20.1768   17.2401 C.ar    1  UNL1       -0.0003
     20 C          19.9450  -18.8323   16.9200 C.ar    1  UNL1       -0.0000
     21 C          20.6925  -18.3929   15.8434 C.ar    1  UNL1       -0.0003
     22 C          21.4134  -19.2979   15.0870 C.ar    1  UNL1       -0.0024
     23 C          19.0548  -26.0759   15.8287 C.3     1  UNL1        0.0985
     24 C          16.9352  -27.3401   16.2174 C.3     1  UNL1        0.0018
     25 C          17.6282  -26.3073   15.3264 C.3     1  UNL1        0.0202
     26 C          16.8512  -24.9902   15.3727 C.3     1  UNL1        0.0018
     27 C          20.2584  -28.4370   14.8138 C.3     1  UNL1        0.2929
     28 O          21.3604  -28.8852   15.6464 O.3     1  UNL1       -0.4383
     29 C          21.1993  -28.7867   16.9754 C.2     1  UNL1        0.3175
     30 O          20.2160  -29.2522   17.5009 O.2     1  UNL1       -0.2501
     31 C          22.2450  -28.0954   17.8119 C.3     1  UNL1        0.1099
     32 C          21.8195  -28.1181   19.2814 C.3     1  UNL1        0.0164
     33 C          21.4453  -26.7028   19.7260 C.3     1  UNL1        0.0285
     34 C          19.9474  -26.5955   19.8519 C.ar    1  UNL1       -0.0038
     35 C          19.1242  -27.5072   20.3931 C.ar    1  UNL1        0.0681
     36 N          17.8315  -27.0625   20.3333 N.ar    1  UNL1       -0.3523
     37 C          17.7894  -25.8260   19.7291 C.ar    1  UNL1        0.0563
     38 C          19.1129  -25.4791   19.4010 C.ar    1  UNL1        0.0130
     39 C          19.3782  -24.2622   18.7707 C.ar    1  UNL1        0.0012
     40 C          18.3493  -23.4127   18.4751 C.ar    1  UNL1        0.0001
     41 C          17.0420  -23.7504   18.7962 C.ar    1  UNL1        0.0015
     42 C          16.7577  -24.9464   19.4187 C.ar    1  UNL1        0.0170
     43 H          17.0481  -27.5535   20.6718 H       1  UNL1        0.1660
@<TRIPOS>BOND
     1    24    25    1
     2    25    26    1
     3    25    23    1
     4    23     1    1
     5     1     4    1
     6     1     2   am
     7     4    10   ar
     8     4     5   ar
     9     5     6   ar
    10     5    12    1
    11     6     7   ar
    12     6    16    1
    13     7     8    2
    14     7     9   ar
    15     9    10   ar
    16    10    11    2
    17    16    17    1
    18    17    22   ar
    19    17    18   ar
    20    18    19   ar
    21    19    20   ar
    22    20    21   ar
    23    21    22   ar
    24     2     3    2
    25     2    27    1
    26    27    28    1
    27    28    29    1
    28    29    30    2
    29    29    31    1
    30    31    32    1
    31    32    33    1
    32    33    34    1
    33    34    38   ar
    34    34    35   ar
    35    35    36   ar
    36    36    37   ar
    37    37    42   ar
    38    37    38   ar
    39    38    39   ar
    40    39    40   ar
    41    40    41   ar
    42    41    42   ar
    43     9    13    1
    44    12    14    1
    45    12    15    1
    46    36    43    1
#	Name:			ZINC13039564
#	Creating user name:	trannguyen
#	Creation time:		Wed Dec  7 14:36:20 2022


#	Modifying user name:	trannguyen
#	Modification time:	Wed Dec  7 14:36:20 2022

@<TRIPOS>MOLECULE
ZINC13039564
 31 32 0 0 0
SMALL
GASTEIGER

@<TRIPOS>ATOM
      1 C          15.4721  -25.6565   14.7938 C.2     1  UNL1        0.0048
      2 C          14.3187  -25.1246   15.2516 C.2     1  UNL1        0.0580
      3 C          18.5635  -24.5843   16.6283 C.ar    1  UNL1        0.1722
      4 C          17.3618  -25.2028   16.3449 C.ar    1  UNL1        0.0400
      5 C          16.7540  -25.0055   15.0996 C.ar    1  UNL1        0.0034
      6 C          17.3736  -24.1920   14.1441 C.ar    1  UNL1        0.0033
      7 C          18.5751  -23.5834   14.4332 C.ar    1  UNL1        0.0400
      8 C          19.1743  -23.7749   15.6711 C.ar    1  UNL1        0.1722
      9 O          19.1543  -24.7692   17.8391 O.3     1  UNL1       -0.4724
     10 C          19.1288  -25.1615   20.2237 C.3     1  UNL1        0.0512
     11 C          18.2893  -24.9471   18.9626 C.3     1  UNL1        0.2057
     12 O          20.3591  -23.1722   15.9503 O.3     1  UNL1       -0.4724
     13 C          20.3886  -21.7444   15.8993 C.3     1  UNL1        0.2054
     14 C          19.8917  -21.1762   17.2301 C.3     1  UNL1        0.0438
     15 C          20.7837  -21.6823   18.3655 C.3     1  UNL1        0.0038
     16 C          19.9437  -19.6478   17.1833 C.3     1  UNL1        0.0038
     17 C          13.0436  -25.7722   14.9474 C.2     1  UNL1        0.2496
     18 O          12.0175  -25.1175   14.9293 O.2     1  UNL1       -0.2698
     19 N          13.0042  -27.0940   14.6871 N.am    1  UNL1       -0.2803
     20 H          13.8411  -27.6092   14.6279 H       1  UNL1        0.1552
     21 C          11.7750  -27.7336   14.5013 C.ar    1  UNL1        0.0518
     22 C          11.3631  -28.0913   13.2231 C.ar    1  UNL1        0.0148
     23 C          10.1487  -28.7231   13.0388 C.ar    1  UNL1        0.0025
     24 C           9.3395  -29.0013   14.1238 C.ar    1  UNL1        0.0148
     25 C           9.7451  -28.6461   15.4040 C.ar    1  UNL1        0.0515
     26 C          10.9674  -28.0171   15.5934 C.ar    1  UNL1        0.0293
     27 N           8.9246  -28.9273   16.5020 N.am    1  UNL1       -0.2839
     28 C           9.2729  -29.8947   17.3732 C.2     1  UNL1        0.2266
     29 O          10.2528  -30.5775   17.1614 O.2     1  UNL1       -0.2748
     30 C           8.4451  -30.1281   18.6106 C.3     1  UNL1        0.0949
     31 H           8.0929  -28.4185   16.6380 H       1  UNL1        0.1549
@<TRIPOS>BOND
     1    10    11    1
     2    11     9    1
     3     9     3    1
     4     3     8   ar
     5     3     4   ar
     6     4     5   ar
     7     5     6   ar
     8     5     1    1
     9     6     7   ar
    10     7     8   ar
    11     8    12    1
    12    12    13    1
    13    13    14    1
    14    14    15    1
    15    14    16    1
    16     1     2    2
    17     2    17    1
    18    17    18    2
    19    17    19   am
    20    19    21    1
    21    21    26   ar
    22    21    22   ar
    23    22    23   ar
    24    23    24   ar
    25    24    25   ar
    26    25    26   ar
    27    25    27    1
    28    27    28   am
    29    28    29    2
    30    28    30    1
    31    19    20    1
    32    27    31    1
#	Name:			ZINC13128676
#	Creating user name:	trannguyen
#	Creation time:		Wed Dec  7 14:36:20 2022


#	Modifying user name:	trannguyen
#	Modification time:	Wed Dec  7 14:36:20 2022

@<TRIPOS>MOLECULE
ZINC13128676
 35 38 0 0 0
SMALL
GASTEIGER

@<TRIPOS>ATOM
      1 C          20.5768  -21.2366   17.1140 C.2     1  UNL1        0.2707
      2 O          19.8617  -20.2626   17.2164 O.2     1  UNL1       -0.2707
      3 N          21.4009  -21.3593   16.0546 N.am    1  UNL1       -0.2807
      4 H          21.9239  -22.1841   15.9307 H       1  UNL1        0.1550
      5 C          21.5127  -20.3190   15.1352 C.ar    1  UNL1        0.0548
      6 C          22.0464  -19.0978   15.5247 C.ar    1  UNL1        0.0148
      7 C          22.1510  -18.0666   14.6133 C.ar    1  UNL1        0.0013
      8 C          21.7311  -18.2419   13.3046 C.ar    1  UNL1        0.0002
      9 C          21.2043  -19.4488   12.8986 C.ar    1  UNL1        0.0058
     10 C          21.0921  -20.5019   13.8095 C.ar    1  UNL1        0.0668
     11 C          20.5290  -21.7964   13.3816 C.2     1  UNL1        0.2471
     12 O          21.1840  -22.8138   13.5017 O.2     1  UNL1       -0.2701
     13 N          19.2885  -21.8514   12.8574 N.am    1  UNL1       -0.2985
     14 H          18.7582  -21.0278   12.7602 H       1  UNL1        0.1498
     15 C          18.7294  -23.1371   12.4323 C.3     1  UNL1        0.1193
     16 C          17.4690  -23.4389   13.2456 C.3     1  UNL1        0.1348
     17 C          17.8413  -24.2296   14.5148 C.3     1  UNL1        0.0339
     18 C          17.0285  -25.5419   14.3964 C.3     1  UNL1        0.0346
     19 C          15.9058  -25.1411   13.4058 C.3     1  UNL1        0.1422
     20 O          16.5762  -24.2617   12.4761 O.3     1  UNL1       -0.3545
     21 C          20.5440  -22.3100   18.1714 C.3     1  UNL1        0.2897
     22 O          20.4199  -23.5895   17.5474 O.3     1  UNL1       -0.4659
     23 C          19.3053  -25.6853   17.7049 C.ar    1  UNL1        0.0162
     24 C          18.1616  -26.4084   17.9842 C.ar    1  UNL1       -0.0009
     25 C          17.0089  -25.7557   18.3796 C.ar    1  UNL1       -0.0001
     26 C          16.9975  -24.3778   18.4972 C.ar    1  UNL1        0.0031
     27 C          18.1396  -23.6508   18.2242 C.ar    1  UNL1        0.0366
     28 C          19.2962  -24.3031   17.8216 C.ar    1  UNL1        0.1356
     29 C          20.5616  -26.3975   17.2744 C.3     1  UNL1        0.0557
     30 C          20.2657  -27.4338   13.1409 C.ar    1  UNL1       -0.0000
     31 C          19.6938  -28.2482   14.1004 C.ar    1  UNL1       -0.0003
     32 C          19.7897  -27.9130   15.4380 C.ar    1  UNL1       -0.0039
     33 C          20.4573  -26.7632   15.8163 C.ar    1  UNL1       -0.0177
     34 C          21.0243  -25.9458   14.8564 C.ar    1  UNL1       -0.0039
     35 C          20.9329  -26.2837   13.5191 C.ar    1  UNL1       -0.0003
@<TRIPOS>BOND
     1    30    35   ar
     2    30    31   ar
     3    31    32   ar
     4    32    33   ar
     5    33    34   ar
     6    33    29    1
     7    34    35   ar
     8    29    23    1
     9    23    28   ar
    10    23    24   ar
    11    24    25   ar
    12    25    26   ar
    13    26    27   ar
    14    27    28   ar
    15    28    22    1
    16    22    21    1
    17    21     1    1
    18     1     2    2
    19     1     3   am
    20     3     5    1
    21     5    10   ar
    22     5     6   ar
    23     6     7   ar
    24     7     8   ar
    25     8     9   ar
    26     9    10   ar
    27    10    11    1
    28    11    12    2
    29    11    13   am
    30    13    15    1
    31    15    16    1
    32    16    20    1
    33    16    17    1
    34    17    18    1
    35    18    19    1
    36    19    20    1
    37     3     4    1
    38    13    14    1
#	Name:			ZINC13140273
#	Creating user name:	trannguyen
#	Creation time:		Wed Dec  7 14:36:20 2022


#	Modifying user name:	trannguyen
#	Modification time:	Wed Dec  7 14:36:20 2022

@<TRIPOS>MOLECULE
ZINC13140273
 38 40 0 0 0
SMALL
GASTEIGER

@<TRIPOS>ATOM
      1 C          20.6213  -21.2224   15.6130 C.ar    1  UNL1        0.1232
      2 C          19.8682  -22.0622   14.8228 C.ar    1  UNL1        0.0245
      3 C          20.1089  -22.1270   13.4481 C.ar    1  UNL1        0.0562
      4 C          21.1098  -21.3346   12.8796 C.ar    1  UNL1        0.0078
      5 C          21.8545  -20.4935   13.6755 C.ar    1  UNL1        0.0383
      6 C          21.6121  -20.4320   15.0430 C.ar    1  UNL1        0.1543
      7 C          19.3080  -23.0299   12.5984 C.2     1  UNL1        0.2614
      8 O          19.1658  -22.7849   11.4159 O.2     1  UNL1       -0.2686
      9 N          18.7345  -24.1261   13.1331 N.am    1  UNL1       -0.2311
     10 H          18.8496  -24.3246   14.0906 H       1  UNL1        0.1731
     11 N          17.9743  -24.9831   12.3266 N.am    1  UNL1       -0.2453
     12 H          18.4227  -25.6459   11.7532 H       1  UNL1        0.1718
     13 C          16.6292  -24.9002   12.3358 C.2     1  UNL1        0.1511
     14 S          15.8367  -23.7348   11.3637 S.2     1  UNL1       -0.0171
     15 N          15.9078  -25.7347   13.1102 N.am    1  UNL1       -0.2948
     16 H          15.1534  -26.2358   12.7242 H       1  UNL1        0.1539
     17 C          16.2310  -25.8888   14.4625 C.ar    1  UNL1        0.0496
     18 C          16.6982  -27.1098   14.9315 C.ar    1  UNL1        0.0143
     19 C          17.0209  -27.2573   16.2662 C.ar    1  UNL1       -0.0030
     20 C          16.8694  -26.1941   17.1373 C.ar    1  UNL1       -0.0224
     21 C          16.3995  -24.9787   16.6745 C.ar    1  UNL1       -0.0030
     22 C          16.0799  -24.8230   15.3400 C.ar    1  UNL1        0.0143
     23 C          17.2176  -26.3602   18.5942 C.3     1  UNL1        0.0224
     24 C          16.0220  -25.9467   19.4546 C.3     1  UNL1        0.0047
     25 C          17.5639  -27.8243   18.8720 C.3     1  UNL1        0.0047
     26 S          20.3235  -21.1449   17.3479 S.O2    1  UNL1       -0.0549
     27 O          21.5629  -21.4217   17.9854 O.2     1  UNL1       -0.1841
     28 O          19.5972  -19.9462   17.5822 O.2     1  UNL1       -0.1841
     29 N          19.3067  -22.3961   17.7265 N.pl3   1  UNL1       -0.5357
     30 C          21.4292  -27.5348   18.8426 C.3     1  UNL1        0.0310
     31 C          20.8653  -26.1691   18.5460 C.ar    1  UNL1       -0.0220
     32 C          20.6530  -25.7801   17.2360 C.ar    1  UNL1       -0.0061
     33 C          20.1360  -24.5294   16.9607 C.ar    1  UNL1       -0.0242
     34 C          19.8293  -23.6618   18.0015 C.ar    1  UNL1       -0.1123
     35 C          20.0488  -24.0539   19.3159 C.ar    1  UNL1       -0.0242
     36 C          20.5612  -25.3080   19.5844 C.ar    1  UNL1       -0.0061
     37 O          22.3489  -19.6023   15.8243 O.3     1  UNL1       -0.4702
     38 C          22.1243  -18.1992   15.6730 C.3     1  UNL1        0.2525
@<TRIPOS>UNITY_ATOM_ATTR
29 1
charge -1
@<TRIPOS>BOND
     1    30    31    1
     2    31    36   ar
     3    31    32   ar
     4    32    33   ar
     5    33    34   ar
     6    34    35   ar
     7    34    29    1
     8    35    36   ar
     9    29    26    1
    10    26    27    2
    11    26    28    2
    12    26     1    1
    13     1     6   ar
    14     1     2   ar
    15     2     3   ar
    16     3     4   ar
    17     3     7    1
    18     4     5   ar
    19     5     6   ar
    20     6    37    1
    21    37    38    1
    22     7     8    2
    23     7     9   am
    24     9    11    1
    25    11    13    1
    26    13    14    2
    27    13    15    1
    28    15    17    1
    29    17    22   ar
    30    17    18   ar
    31    18    19   ar
    32    19    20   ar
    33    20    21   ar
    34    20    23    1
    35    21    22   ar
    36    23    24    1
    37    23    25    1
    38     9    10    1
    39    11    12    1
    40    15    16    1
#	Name:			ZINC13364613
#	Creating user name:	trannguyen
#	Creation time:		Wed Dec  7 14:36:19 2022


#	Modifying user name:	trannguyen
#	Modification time:	Wed Dec  7 14:36:19 2022

@<TRIPOS>MOLECULE
ZINC13364613
 42 45 0 0 0
SMALL
GASTEIGER

@<TRIPOS>ATOM
      1 C          20.3475  -25.2998   16.1978 C.ar    1  UNL1        0.1498
      2 C          20.7603  -26.2309   15.2344 C.ar    1  UNL1        0.0963
      3 C          19.8256  -27.1287   14.7432 C.ar    1  UNL1        0.0784
      4 N          18.5795  -27.0758   15.1925 N.ar    1  UNL1       -0.2166
      5 C          18.2193  -26.1811   16.0994 C.ar    1  UNL1        0.2216
      6 N          19.0801  -25.3047   16.5956 N.ar    1  UNL1       -0.1972
      7 C          20.2212  -28.1531   13.7112 C.3     1  UNL1        0.0536
      8 N          22.0892  -26.2571   14.7826 N.am    1  UNL1       -0.2805
      9 C          22.4745  -25.4488   13.7752 C.2     1  UNL1        0.2306
     10 O          21.7013  -24.6296   13.3253 O.2     1  UNL1       -0.2744
     11 H          22.7397  -26.8657   15.2017 H       1  UNL1        0.1550
     12 C          23.8658  -25.5630   13.2077 C.3     1  UNL1        0.1117
     13 C          23.8356  -26.4271   11.9734 C.ar    1  UNL1       -0.0129
     14 C          23.0090  -27.5344   11.9262 C.ar    1  UNL1       -0.0007
     15 C          22.9752  -28.3249   10.7937 C.ar    1  UNL1        0.0366
     16 C          23.7800  -28.0133    9.7076 C.ar    1  UNL1        0.1387
     17 C          24.6127  -26.9049    9.7595 C.ar    1  UNL1        0.0366
     18 C          24.6386  -26.1144   10.8921 C.ar    1  UNL1       -0.0007
     19 O          23.7523  -28.7923    8.5943 O.3     1  UNL1       -0.4714
     20 C          23.5143  -30.1883    8.7851 C.3     1  UNL1        0.2525
     21 N          21.2476  -24.3843   16.7240 N.pl3   1  UNL1       -0.2968
     22 H          22.1131  -24.6925   17.0778 H       1  UNL1        0.1536
     23 C          20.2868  -20.3285   16.8066 C.ar    1  UNL1        0.1386
     24 C          20.3467  -21.0510   17.9893 C.ar    1  UNL1        0.0382
     25 C          20.6649  -22.3945   17.9628 C.ar    1  UNL1        0.0178
     26 C          20.9251  -23.0223   16.7517 C.ar    1  UNL1        0.0496
     27 C          20.8706  -22.2969   15.5688 C.ar    1  UNL1        0.0178
     28 C          20.5466  -20.9548   15.5964 C.ar    1  UNL1        0.0382
     29 O          19.9738  -19.0054   16.8337 O.3     1  UNL1       -0.4755
     30 C          21.9612  -17.9700   15.9288 C.3     1  UNL1        0.0512
     31 C          20.4588  -18.2019   15.7560 C.3     1  UNL1        0.2055
     32 N          16.9051  -26.1603   16.5416 N.pl3   1  UNL1       -0.2825
     33 H          16.6964  -25.8441   17.4503 H       1  UNL1        0.1551
     34 C          15.8749  -26.5892   15.6958 C.ar    1  UNL1        0.0507
     35 C          15.2683  -27.8201   15.9086 C.ar    1  UNL1        0.0178
     36 C          14.2491  -28.2401   15.0768 C.ar    1  UNL1        0.0382
     37 C          13.8381  -27.4374   14.0229 C.ar    1  UNL1        0.1386
     38 C          14.4471  -26.2100   13.8064 C.ar    1  UNL1        0.0382
     39 C          15.4632  -25.7863   14.6402 C.ar    1  UNL1        0.0178
     40 O          12.8379  -27.8540   13.2011 O.3     1  UNL1       -0.4755
     41 C          11.5070  -27.7964   13.7182 C.3     1  UNL1        0.2055
     42 C          10.5593  -28.5347   12.7708 C.3     1  UNL1        0.0512
@<TRIPOS>BOND
     1    30    31    1
     2    31    29    1
     3    29    23    1
     4    23    28   ar
     5    23    24   ar
     6    24    25   ar
     7    25    26   ar
     8    26    27   ar
     9    26    21    1
    10    27    28   ar
    11    21     1    1
    12     1     6   ar
    13     1     2   ar
    14     2     3   ar
    15     2     8    1
    16     3     4   ar
    17     3     7    1
    18     4     5   ar
    19     5     6   ar
    20     5    32    1
    21    32    34    1
    22    34    39   ar
    23    34    35   ar
    24    35    36   ar
    25    36    37   ar
    26    37    38   ar
    27    37    40    1
    28    38    39   ar
    29    40    41    1
    30    41    42    1
    31     8     9   am
    32     9    10    2
    33     9    12    1
    34    12    13    1
    35    13    18   ar
    36    13    14   ar
    37    14    15   ar
    38    15    16   ar
    39    16    17   ar
    40    16    19    1
    41    17    18   ar
    42    19    20    1
    43    21    22    1
    44    32    33    1
    45     8    11    1
#	Name:			ZINC13501233
#	Creating user name:	trannguyen
#	Creation time:		Wed Dec  7 14:36:20 2022


#	Modifying user name:	trannguyen
#	Modification time:	Wed Dec  7 14:36:20 2022

@<TRIPOS>MOLECULE
ZINC13501233
 38 42 0 0 0
SMALL
GASTEIGER

@<TRIPOS>ATOM
      1 N          18.9284  -25.1173   15.0214 N.4     1  UNL1        0.2766
      2 H          18.6006  -26.0245   14.6899 H       1  UNL1        0.2070
      3 C          19.5616  -24.3958   13.8976 C.3     1  UNL1        0.0702
      4 C          19.6735  -25.3376   12.6809 C.3     1  UNL1        0.0572
      5 C          18.4068  -25.0273   11.8436 C.3     1  UNL1        0.0064
      6 C          18.2584  -23.4938   12.0024 C.3     1  UNL1        0.0064
      7 C          18.6621  -23.2242   13.4667 C.3     1  UNL1        0.0572
      8 C          20.9263  -23.8847   14.2819 C.ar    1  UNL1        0.2044
      9 N          22.0657  -24.5185   14.1477 N.ar    1  UNL1       -0.1071
     10 N          23.0014  -23.7538   14.5947 N.ar    1  UNL1       -0.0228
     11 N          22.4890  -22.6467   15.0059 N.ar    1  UNL1       -0.0431
     12 N          21.2119  -22.6876   14.8268 N.ar    1  UNL1       -0.2144
     13 C          20.2523  -21.6318   15.1598 C.3     1  UNL1        0.1084
     14 C          19.9530  -21.6479   16.6730 C.3     1  UNL1        0.0245
     15 C          20.9136  -20.5835   17.2608 C.3     1  UNL1        0.0021
     16 C          20.9026  -19.4766   16.1775 C.3     1  UNL1        0.0021
     17 C          20.8562  -20.2521   14.8447 C.3     1  UNL1        0.0245
     18 C          17.7746  -24.3466   15.5304 C.3     1  UNL1        0.1376
     19 C          12.8987  -27.7499   13.7779 C.ar    1  UNL1        0.1386
     20 C          12.5805  -28.2214   15.0495 C.ar    1  UNL1        0.0384
     21 C          13.3281  -27.8477   16.1440 C.ar    1  UNL1        0.0202
     22 C          14.4133  -26.9922   15.9849 C.ar    1  UNL1        0.0590
     23 C          14.7383  -26.5134   14.7020 C.ar    1  UNL1        0.0187
     24 C          13.9710  -26.8998   13.5980 C.ar    1  UNL1        0.0383
     25 C          15.8798  -25.6090   14.5497 C.ar    1  UNL1        0.0077
     26 C          16.5912  -25.2717   15.6536 C.ar    1  UNL1        0.0885
     27 C          16.2243  -25.7793   16.9182 C.ar    1  UNL1        0.2591
     28 O          16.8750  -25.4600   17.8982 O.2     1  UNL1       -0.2673
     29 N          15.1752  -26.6064   17.0691 N.ar    1  UNL1       -0.3211
     30 H          14.9470  -26.9418   17.9662 H       1  UNL1        0.1689
     31 O          12.1488  -28.1286   12.7087 O.3     1  UNL1       -0.4755
     32 C           9.7403  -28.1045   12.9059 C.3     1  UNL1        0.0512
     33 C          11.0118  -28.9528   12.9731 C.3     1  UNL1        0.2055
     34 C          19.9121  -25.3286   16.1043 C.3     1  UNL1        0.1083
     35 C          19.9121  -26.8114   16.4814 C.3     1  UNL1        0.0926
     36 C          21.3522  -27.2852   16.6877 C.3     1  UNL1        0.1433
     37 O          22.1315  -26.9560   15.5361 O.3     1  UNL1       -0.3818
     38 H          21.7560  -27.3931   14.7558 H       1  UNL1        0.2104
@<TRIPOS>UNITY_ATOM_ATTR
1 1
charge 1
@<TRIPOS>BOND
     1    32    33    1
     2    33    31    1
     3    31    19    1
     4    19    24   ar
     5    19    20   ar
     6    20    21   ar
     7    21    22   ar
     8    22    29   ar
     9    22    23   ar
    10    23    24   ar
    11    23    25   ar
    12    25    26   ar
    13    26    27   ar
    14    26    18    1
    15    27    28    2
    16    27    29   ar
    17    18     1    1
    18    34    35    1
    19    34     1    1
    20    35    36    1
    21    36    37    1
    22     3     7    1
    23     3     4    1
    24     3     8    1
    25     3     1    1
    26     4     5    1
    27     5     6    1
    28     6     7    1
    29     8    12   ar
    30     8     9   ar
    31     9    10   ar
    32    10    11   ar
    33    11    12   ar
    34    12    13    1
    35    13    17    1
    36    13    14    1
    37    14    15    1
    38    15    16    1
    39    16    17    1
    40    29    30    1
    41    37    38    1
    42     1     2    1
#	Name:			ZINC13527788
#	Creating user name:	trannguyen
#	Creation time:		Wed Dec  7 14:36:19 2022


#	Modifying user name:	trannguyen
#	Modification time:	Wed Dec  7 14:36:19 2022

@<TRIPOS>MOLECULE
ZINC13527788
 39 41 0 0 0
SMALL
GASTEIGER

@<TRIPOS>ATOM
      1 C          16.0770  -24.4218   14.8934 C.ar    1  UNL1        0.0875
      2 C          16.7502  -24.9497   16.0015 C.ar    1  UNL1        0.0191
      3 C          18.1162  -25.1194   15.9564 C.ar    1  UNL1        0.0216
      4 C          18.8245  -24.7687   14.8173 C.ar    1  UNL1        0.1269
      5 C          18.1648  -24.2459   13.7163 C.ar    1  UNL1        0.0456
      6 C          16.7979  -24.0751   13.7451 C.ar    1  UNL1        0.1589
      7 N          16.0944  -23.5213   12.5661 N.pl3   1  UNL1        0.0590
      8 O          15.1742  -22.5925   12.7246 O.2     1  UNL1       -0.1261
      9 O          16.3887  -23.9574   11.3587 O.2     1  UNL1       -0.1261
     10 S          20.5720  -24.9894   14.7690 S.O2    1  UNL1        0.0736
     11 O          20.8135  -26.3705   15.0000 O.2     1  UNL1       -0.1499
     12 O          21.0338  -24.3198   13.6039 O.2     1  UNL1       -0.1499
     13 N          21.2044  -24.1751   16.0649 N.pl3   1  UNL1       -0.2150
     14 H          21.7838  -24.6456   16.7070 H       1  UNL1        0.1737
     15 C          20.9152  -22.8181   16.2473 C.ar    1  UNL1        0.0650
     16 C          20.2290  -22.4002   17.3800 C.ar    1  UNL1        0.0190
     17 C          19.9490  -21.0601   17.5619 C.ar    1  UNL1        0.0382
     18 C          20.3424  -20.1332   16.6082 C.ar    1  UNL1        0.1388
     19 C          21.0233  -20.5504   15.4741 C.ar    1  UNL1        0.0382
     20 C          21.3092  -21.8894   15.2932 C.ar    1  UNL1        0.0190
     21 O          20.0610  -18.8144   16.7853 O.3     1  UNL1       -0.4714
     22 C          20.7200  -17.8885   15.9190 C.3     1  UNL1        0.2525
     23 N          14.7145  -24.2501   14.9309 N.pl3   1  UNL1       -0.2343
     24 H          14.3270  -23.3555   14.7940 H       1  UNL1        0.1745
     25 C          14.0309  -26.3517   14.3645 C.2     1  UNL1        0.1205
     26 N          13.9427  -25.2612   15.1455 N.2     1  UNL1       -0.1796
     27 C          11.5231  -29.6283   15.0592 C.ar    1  UNL1        0.0509
     28 C          12.9237  -29.7996   15.1225 C.ar    1  UNL1        0.0148
     29 C          13.7615  -28.7615   14.9032 C.ar    1  UNL1        0.0059
     30 C          13.2001  -27.4401   14.5955 C.ar    1  UNL1        0.0544
     31 C          11.7318  -27.2967   14.5316 C.ar    1  UNL1        0.1364
     32 C          10.9488  -28.3901   14.7696 C.ar    1  UNL1        0.0512
     33 O          11.1710  -26.1001   14.2462 O.3     1  UNL1       -0.5054
     34 H          11.7149  -25.3545   14.0841 H       1  UNL1        0.2922
     35 N          10.7080  -30.7054   15.2875 N.pl3   1  UNL1       -0.3074
     36 C          10.1601  -30.0497   17.5791 C.3     1  UNL1        0.0232
     37 C          10.5252  -31.2098   16.6507 C.3     1  UNL1        0.0908
     38 C          10.0190  -31.3527   14.1684 C.3     1  UNL1        0.0908
     39 C          10.9619  -32.3554   13.5003 C.3     1  UNL1        0.0232
@<TRIPOS>BOND
     1    36    37    1
     2    37    35    1
     3    35    38    1
     4    35    27    1
     5    38    39    1
     6    27    32   ar
     7    27    28   ar
     8    28    29   ar
     9    29    30   ar
    10    30    31   ar
    11    30    25    1
    12    31    32   ar
    13    31    33    1
    14    25    26    2
    15    26    23    1
    16    23     1    1
    17     1     6   ar
    18     1     2   ar
    19     2     3   ar
    20     3     4   ar
    21     4     5   ar
    22     4    10    1
    23     5     6   ar
    24     6     7    1
    25     7     8    2
    26     7     9    2
    27    10    11    2
    28    10    12    2
    29    10    13    1
    30    13    15    1
    31    15    20   ar
    32    15    16   ar
    33    16    17   ar
    34    17    18   ar
    35    18    19   ar
    36    18    21    1
    37    19    20   ar
    38    21    22    1
    39    33    34    1
    40    23    24    1
    41    13    14    1
#	Name:			ZINC13617037
#	Creating user name:	trannguyen
#	Creation time:		Wed Dec  7 14:36:20 2022


#	Modifying user name:	trannguyen
#	Modification time:	Wed Dec  7 14:36:20 2022

@<TRIPOS>MOLECULE
ZINC13617037
 33 35 0 0 0
SMALL
GASTEIGER

@<TRIPOS>ATOM
      1 N          16.7513  -25.3218   21.1694 N.am    1  UNL1       -0.6271
      2 C          17.6415  -24.8432   20.2100 C.ar    1  UNL1       -0.1235
      3 C          17.1762  -24.0493   19.1660 C.ar    1  UNL1       -0.0245
      4 C          18.0538  -23.5702   18.2199 C.ar    1  UNL1        0.0026
      5 C          19.4115  -23.8914   18.3022 C.ar    1  UNL1        0.0532
      6 C          19.8746  -24.6936   19.3488 C.ar    1  UNL1        0.0026
      7 C          18.9927  -25.1648   20.2948 C.ar    1  UNL1       -0.0245
      8 C          20.3543  -23.3840   17.2865 C.2     1  UNL1        0.2459
      9 O          21.5234  -23.7163   17.3223 O.2     1  UNL1       -0.2701
     10 N          19.9194  -22.5524   16.3192 N.am    1  UNL1       -0.2985
     11 H          18.9728  -22.2834   16.2902 H       1  UNL1        0.1498
     12 C          20.8553  -22.0488   15.3108 C.3     1  UNL1        0.1193
     13 C          20.8568  -20.5190   15.3353 C.3     1  UNL1        0.1348
     14 C          20.7986  -19.9581   13.8971 C.3     1  UNL1        0.0339
     15 C          21.7076  -18.7096   13.9439 C.3     1  UNL1        0.0346
     16 C          22.2076  -18.6639   15.4049 C.3     1  UNL1        0.1422
     17 O          22.1031  -20.0261   15.8734 O.3     1  UNL1       -0.3545
     18 C          16.2962  -26.5882   21.0941 C.2     1  UNL1       -0.0344
     19 S          17.2391  -27.8751   21.7151 S.2     1  UNL1       -0.0617
     20 C          15.0298  -27.2365   19.2433 C.2     1  UNL1        0.2485
     21 O          16.0478  -27.3644   18.5916 O.2     1  UNL1       -0.2698
     22 N          15.0986  -26.8414   20.5300 N.am    1  UNL1       -0.2955
     23 H          14.2741  -26.7378   21.0578 H       1  UNL1        0.1538
     24 C          11.2569  -28.0336   17.4648 C.ar    1  UNL1        0.1446
     25 C          12.4088  -28.0569   16.6873 C.ar    1  UNL1        0.0376
     26 C          13.6346  -27.8048   17.2612 C.ar    1  UNL1        0.0077
     27 C          13.7190  -27.5136   18.6258 C.ar    1  UNL1        0.0543
     28 C          12.5588  -27.4910   19.4048 C.ar    1  UNL1        0.0143
     29 C          11.3366  -27.7501   18.8239 C.ar    1  UNL1        0.0686
     30 BR          9.7655  -27.7193   19.8760 Br      1  UNL1       -0.0458
     31 O          10.0512  -28.2887   16.8962 O.3     1  UNL1       -0.4750
     32 C           9.3934  -28.8731   14.6454 C.3     1  UNL1        0.0512
     33 C           9.9893  -29.3700   15.9640 C.3     1  UNL1        0.2055
@<TRIPOS>UNITY_ATOM_ATTR
1 1
charge -1
@<TRIPOS>BOND
     1    32    33    1
     2    33    31    1
     3    31    24    1
     4    24    29   ar
     5    24    25   ar
     6    25    26   ar
     7    26    27   ar
     8    27    28   ar
     9    27    20    1
    10    28    29   ar
    11    29    30    1
    12    20    21    2
    13    20    22   am
    14    22    18    1
    15    18    19    2
    16    18     1    1
    17     1     2    1
    18     2     7   ar
    19     2     3   ar
    20     3     4   ar
    21     4     5   ar
    22     5     6   ar
    23     5     8    1
    24     6     7   ar
    25     8     9    2
    26     8    10   am
    27    10    12    1
    28    12    13    1
    29    13    17    1
    30    13    14    1
    31    14    15    1
    32    15    16    1
    33    16    17    1
    34    22    23    1
    35    10    11    1
#	Name:			ZINC13618392
#	Creating user name:	trannguyen
#	Creation time:		Wed Dec  7 14:36:19 2022


#	Modifying user name:	trannguyen
#	Modification time:	Wed Dec  7 14:36:19 2022

@<TRIPOS>MOLECULE
ZINC13618392
 34 36 0 0 0
SMALL
GASTEIGER

@<TRIPOS>ATOM
      1 C          19.5142  -23.6469   17.4453 C.2     1  UNL1       -0.0347
      2 S          20.4451  -22.8294   18.6269 S.2     1  UNL1       -0.0617
      3 N          19.5902  -23.2752   16.1520 N.am    1  UNL1       -0.2985
      4 C          20.7275  -23.4785   15.4581 C.2     1  UNL1        0.2329
      5 O          21.6824  -23.9956   15.9973 O.2     1  UNL1       -0.2741
      6 H          18.8149  -22.8553   15.7141 H       1  UNL1        0.1535
      7 C          20.8125  -23.0629   14.0120 C.3     1  UNL1        0.1211
      8 C          20.9877  -21.5685   13.9282 C.ar    1  UNL1       -0.0098
      9 C          21.3384  -20.9799   12.7276 C.ar    1  UNL1       -0.0035
     10 C          21.4988  -19.6091   12.6505 C.ar    1  UNL1       -0.0003
     11 C          21.3088  -18.8268   13.7743 C.ar    1  UNL1       -0.0000
     12 C          20.9637  -19.4159   14.9763 C.ar    1  UNL1       -0.0003
     13 C          20.7982  -20.7862   15.0521 C.ar    1  UNL1       -0.0035
     14 C          19.5454  -23.4608   13.2998 C.ar    1  UNL1       -0.0098
     15 C          19.4668  -24.6839   12.6605 C.ar    1  UNL1       -0.0035
     16 C          18.3028  -25.0509   12.0113 C.ar    1  UNL1       -0.0003
     17 C          17.2209  -24.1906   11.9929 C.ar    1  UNL1       -0.0000
     18 C          17.3015  -22.9651   12.6273 C.ar    1  UNL1       -0.0003
     19 C          18.4637  -22.6003   13.2810 C.ar    1  UNL1       -0.0035
     20 N          18.7054  -24.6619   17.8084 N.am    1  UNL1       -0.6271
     21 C          16.0232  -25.7865   15.5440 C.ar    1  UNL1        0.0515
     22 C          16.6613  -26.8449   14.8943 C.ar    1  UNL1        0.0044
     23 C          17.9639  -27.1669   15.2159 C.ar    1  UNL1       -0.0017
     24 C          18.6433  -26.4415   16.1770 C.ar    1  UNL1       -0.0246
     25 C          18.0152  -25.3898   16.8331 C.ar    1  UNL1       -0.1234
     26 C          16.7065  -25.0582   16.5172 C.ar    1  UNL1       -0.0201
     27 N          13.6596  -26.3727   15.2879 N.am    1  UNL1       -0.2985
     28 C          14.6275  -25.4390   15.2009 C.2     1  UNL1        0.2459
     29 O          14.3533  -24.3110   14.8404 O.2     1  UNL1       -0.2701
     30 H          13.8818  -27.2863   15.5798 H       1  UNL1        0.1498
     31 C          12.2769  -26.0283   14.9480 C.3     1  UNL1        0.1219
     32 C          11.4392  -27.3058   14.8630 C.3     1  UNL1        0.1634
     33 C          10.0617  -27.9518   13.0108 C.3     1  UNL1        0.1742
     34 O          11.3871  -27.7518   13.5063 O.3     1  UNL1       -0.3493
@<TRIPOS>UNITY_ATOM_ATTR
20 1
charge -1
@<TRIPOS>BOND
     1    33    34    1
     2    34    32    1
     3    32    31    1
     4    31    27    1
     5    27    28   am
     6    28    29    2
     7    28    21    1
     8    21    26   ar
     9    21    22   ar
    10    22    23   ar
    11    23    24   ar
    12    24    25   ar
    13    25    26   ar
    14    25    20    1
    15    20     1    1
    16     1     2    2
    17     1     3    1
    18     3     4   am
    19     4     5    2
    20     4     7    1
    21     7     8    1
    22     7    14    1
    23     8    13   ar
    24     8     9   ar
    25     9    10   ar
    26    10    11   ar
    27    11    12   ar
    28    12    13   ar
    29    14    19   ar
    30    14    15   ar
    31    15    16   ar
    32    16    17   ar
    33    17    18   ar
    34    18    19   ar
    35    27    30    1
    36     3     6    1
#	Name:			ZINC13624700
#	Creating user name:	trannguyen
#	Creation time:		Wed Dec  7 14:36:20 2022


#	Modifying user name:	trannguyen
#	Modification time:	Wed Dec  7 14:36:20 2022

@<TRIPOS>MOLECULE
ZINC13624700
 28 29 0 0 0
SMALL
GASTEIGER

@<TRIPOS>ATOM
      1 C          20.2652  -24.3093   15.2054 C.2     1  UNL1       -0.0344
      2 S          20.5715  -24.8810   16.7897 S.2     1  UNL1       -0.0617
      3 N          20.3486  -22.9912   14.9367 N.am    1  UNL1       -0.2955
      4 C          21.4872  -22.4774   14.4307 C.2     1  UNL1        0.2514
      5 O          22.4389  -23.2028   14.2168 O.2     1  UNL1       -0.2697
      6 H          19.5778  -22.4037   15.1101 H       1  UNL1        0.1538
      7 C          21.5785  -21.0354   14.1367 C.ar    1  UNL1        0.0875
      8 C          21.5409  -20.5838   12.8147 C.ar    1  UNL1        0.0076
      9 C          21.6223  -19.2348   12.5471 C.ar    1  UNL1        0.0003
     10 C          21.7512  -18.3231   13.5825 C.ar    1  UNL1        0.0031
     11 C          21.7949  -18.7558   14.8928 C.ar    1  UNL1        0.0370
     12 C          21.7094  -20.1097   15.1812 C.ar    1  UNL1        0.1428
     13 O          21.7527  -20.5364   16.4682 O.3     1  UNL1       -0.4753
     14 C          20.5966  -20.2919   17.2718 C.3     1  UNL1        0.2055
     15 C          20.3949  -21.4570   18.2428 C.3     1  UNL1        0.0512
     16 N          19.9406  -25.1773   14.2267 N.am    1  UNL1       -0.6271
     17 C          16.3187  -24.9825   13.5706 C.ar    1  UNL1        0.0515
     18 C          16.3174  -24.7868   12.1882 C.ar    1  UNL1        0.0044
     19 C          17.5115  -24.7135   11.5007 C.ar    1  UNL1       -0.0017
     20 C          18.7116  -24.8441   12.1746 C.ar    1  UNL1       -0.0246
     21 C          18.7235  -25.0450   13.5496 C.ar    1  UNL1       -0.1234
     22 C          17.5291  -25.1146   14.2503 C.ar    1  UNL1       -0.0201
     23 N          14.5676  -26.2486   14.7223 N.am    1  UNL1       -0.3009
     24 C          15.0407  -25.0556   14.3106 C.2     1  UNL1        0.2458
     25 O          14.4165  -24.0399   14.5475 O.2     1  UNL1       -0.2701
     26 H          15.0711  -27.0717   14.5269 H       1  UNL1        0.1497
     27 C          12.1714  -26.6844   14.4988 C.3     1  UNL1        0.0230
     28 C          13.3043  -26.3205   15.4606 C.3     1  UNL1        0.0898
@<TRIPOS>UNITY_ATOM_ATTR
16 1
charge -1
@<TRIPOS>BOND
     1    27    28    1
     2    28    23    1
     3    23    24   am
     4    24    25    2
     5    24    17    1
     6    17    22   ar
     7    17    18   ar
     8    18    19   ar
     9    19    20   ar
    10    20    21   ar
    11    21    22   ar
    12    21    16    1
    13    16     1    1
    14     1     2    2
    15     1     3    1
    16     3     4   am
    17     4     5    2
    18     4     7    1
    19     7    12   ar
    20     7     8   ar
    21     8     9   ar
    22     9    10   ar
    23    10    11   ar
    24    11    12   ar
    25    12    13    1
    26    13    14    1
    27    14    15    1
    28    23    26    1
    29     3     6    1
#	Name:			ZINC13624798
#	Creating user name:	trannguyen
#	Creation time:		Wed Dec  7 14:36:19 2022


#	Modifying user name:	trannguyen
#	Modification time:	Wed Dec  7 14:36:19 2022

@<TRIPOS>MOLECULE
ZINC13624798
 30 31 0 0 0
SMALL
GASTEIGER

@<TRIPOS>ATOM
      1 C          15.1216  -25.0109   14.6369 C.2     1  UNL1       -0.0344
      2 S          15.9333  -25.1555   16.1373 S.2     1  UNL1       -0.0617
      3 N          14.3922  -26.0404   14.1634 N.am    1  UNL1       -0.2955
      4 C          13.0896  -26.1506   14.4914 C.2     1  UNL1        0.2486
      5 O          12.5729  -25.3214   15.2143 O.2     1  UNL1       -0.2698
      6 H          14.8108  -26.7121   13.5779 H       1  UNL1        0.1538
      7 C          12.2897  -27.2796   13.9723 C.ar    1  UNL1        0.0566
      8 C          10.8962  -27.1958   13.9426 C.ar    1  UNL1        0.0047
      9 C          10.1527  -28.2516   13.4570 C.ar    1  UNL1        0.0033
     10 C          10.7830  -29.3943   12.9993 C.ar    1  UNL1        0.0369
     11 C          12.1677  -29.4888   13.0297 C.ar    1  UNL1        0.1387
     12 C          12.9241  -28.4328   13.5097 C.ar    1  UNL1        0.0414
     13 O          12.7814  -30.6165   12.5837 O.3     1  UNL1       -0.4755
     14 C          11.9500  -31.7511   12.3318 C.3     1  UNL1        0.2053
     15 C          12.5157  -32.5462   11.1532 C.3     1  UNL1        0.0438
     16 C          13.9543  -32.1019   10.8818 C.3     1  UNL1        0.0038
     17 C          12.4977  -34.0387   11.4894 C.3     1  UNL1        0.0038
     18 N          15.2122  -23.8673   13.9293 N.am    1  UNL1       -0.6271
     19 C          18.4946  -22.6952   12.7299 C.ar    1  UNL1        0.0515
     20 C          18.4951  -23.2133   11.4334 C.ar    1  UNL1        0.0044
     21 C          17.4128  -23.9391   10.9800 C.ar    1  UNL1       -0.0017
     22 C          16.3275  -24.1606   11.8074 C.ar    1  UNL1       -0.0246
     23 C          16.3149  -23.6447   13.0976 C.ar    1  UNL1       -0.1234
     24 C          17.3976  -22.9140   13.5627 C.ar    1  UNL1       -0.0201
     25 N          19.9989  -21.9686   14.5201 N.am    1  UNL1       -0.3009
     26 C          19.6534  -21.9175   13.2184 C.2     1  UNL1        0.2458
     27 O          20.2945  -21.2321   12.4459 O.2     1  UNL1       -0.2701
     28 H          19.4796  -22.5237   15.1457 H       1  UNL1        0.1497
     29 C          20.6643  -20.1198   15.9762 C.3     1  UNL1        0.0230
     30 C          21.1470  -21.1981   15.0041 C.3     1  UNL1        0.0898
@<TRIPOS>UNITY_ATOM_ATTR
18 1
charge -1
@<TRIPOS>BOND
     1    29    30    1
     2    30    25    1
     3    25    26   am
     4    26    27    2
     5    26    19    1
     6    19    24   ar
     7    19    20   ar
     8    20    21   ar
     9    21    22   ar
    10    22    23   ar
    11    23    24   ar
    12    23    18    1
    13    18     1    1
    14     1     2    2
    15     1     3    1
    16     3     4   am
    17     4     5    2
    18     4     7    1
    19     7    12   ar
    20     7     8   ar
    21     8     9   ar
    22     9    10   ar
    23    10    11   ar
    24    11    12   ar
    25    11    13    1
    26    13    14    1
    27    14    15    1
    28    15    16    1
    29    15    17    1
    30    25    28    1
    31     3     6    1
#	Name:			ZINC13634270
#	Creating user name:	trannguyen
#	Creation time:		Wed Dec  7 14:36:20 2022


#	Modifying user name:	trannguyen
#	Modification time:	Wed Dec  7 14:36:20 2022

@<TRIPOS>MOLECULE
ZINC13634270
 34 36 0 0 0
SMALL
GASTEIGER

@<TRIPOS>ATOM
      1 N          16.3695  -26.4434   19.3106 N.am    1  UNL1       -0.6270
      2 C          15.5763  -26.8192   18.2215 C.ar    1  UNL1       -0.1223
      3 C          14.3873  -27.5070   18.4314 C.ar    1  UNL1       -0.0245
      4 C          13.6036  -27.8785   17.3563 C.ar    1  UNL1       -0.0006
      5 C          13.9987  -27.5672   16.0693 C.ar    1  UNL1        0.0146
      6 C          15.1861  -26.8798   15.8527 C.ar    1  UNL1        0.0485
      7 C          15.9731  -26.5006   16.9308 C.ar    1  UNL1       -0.0099
      8 N          15.5856  -26.5656   14.5491 N.am    1  UNL1       -0.2837
      9 C          15.2920  -25.3583   14.0268 C.2     1  UNL1        0.2305
     10 O          14.6363  -24.5638   14.6671 O.2     1  UNL1       -0.2744
     11 H          16.0811  -27.2264   14.0133 H       1  UNL1        0.1549
     12 C          15.7784  -24.9956   12.6474 C.3     1  UNL1        0.1116
     13 C          17.1490  -24.3767   12.7446 C.ar    1  UNL1       -0.0131
     14 C          17.2799  -23.0162   12.9520 C.ar    1  UNL1       -0.0038
     15 C          18.5372  -22.4493   13.0465 C.ar    1  UNL1       -0.0003
     16 C          19.6634  -23.2411   12.9228 C.ar    1  UNL1       -0.0000
     17 C          19.5325  -24.6006   12.7098 C.ar    1  UNL1       -0.0003
     18 C          18.2754  -25.1684   12.6209 C.ar    1  UNL1       -0.0038
     19 C          17.7126  -26.4440   19.1982 C.2     1  UNL1       -0.0344
     20 S          18.6176  -27.7864   19.7548 S.2     1  UNL1       -0.0617
     21 C          18.7143  -24.3471   19.4193 C.2     1  UNL1        0.2486
     22 O          18.4801  -24.3612   20.6135 O.2     1  UNL1       -0.2698
     23 N          18.3431  -25.3878   18.6475 N.am    1  UNL1       -0.2955
     24 H          18.5325  -25.3764   17.6814 H       1  UNL1        0.1538
     25 C          19.3946  -23.0370   17.4818 C.2     1  UNL1        0.0047
     26 C          19.3979  -23.2018   18.8223 C.2     1  UNL1        0.0580
     27 C          21.3786  -19.7127   15.7493 C.ar    1  UNL1        0.1387
     28 C          20.4877  -19.5178   16.7987 C.ar    1  UNL1        0.0369
     29 C          19.8410  -20.5934   17.3642 C.ar    1  UNL1        0.0031
     30 C          20.0820  -21.8851   16.8814 C.ar    1  UNL1        0.0003
     31 C          20.9844  -22.0763   15.8284 C.ar    1  UNL1        0.0031
     32 C          21.6220  -20.9935   15.2663 C.ar    1  UNL1        0.0369
     33 C          21.7259  -18.3637   13.8244 C.3     1  UNL1        0.2525
     34 O          22.0134  -18.6488   15.1948 O.3     1  UNL1       -0.4714
@<TRIPOS>UNITY_ATOM_ATTR
1 1
charge -1
@<TRIPOS>BOND
     1    33    34    1
     2    34    27    1
     3    27    32   ar
     4    27    28   ar
     5    28    29   ar
     6    29    30   ar
     7    30    31   ar
     8    30    25    1
     9    31    32   ar
    10    25    26    2
    11    26    21    1
    12    21    22    2
    13    21    23   am
    14    23    19    1
    15    19    20    2
    16    19     1    1
    17     1     2    1
    18     2     7   ar
    19     2     3   ar
    20     3     4   ar
    21     4     5   ar
    22     5     6   ar
    23     6     7   ar
    24     6     8    1
    25     8     9   am
    26     9    10    2
    27     9    12    1
    28    12    13    1
    29    13    18   ar
    30    13    14   ar
    31    14    15   ar
    32    15    16   ar
    33    16    17   ar
    34    17    18   ar
    35    23    24    1
    36     8    11    1
#	Name:			ZINC13678272
#	Creating user name:	trannguyen
#	Creation time:		Wed Dec  7 14:36:19 2022


#	Modifying user name:	trannguyen
#	Modification time:	Wed Dec  7 14:36:19 2022

@<TRIPOS>MOLECULE
ZINC13678272
 28 30 0 0 0
SMALL
GASTEIGER

@<TRIPOS>ATOM
      1 C          14.8835  -26.1715   14.8436 C.ar    1  UNL1        0.0689
      2 C          15.7053  -25.5935   15.8074 C.ar    1  UNL1        0.0163
      3 C          16.7268  -24.7529   15.4283 C.ar    1  UNL1        0.0058
      4 C          16.9319  -24.4709   14.0745 C.ar    1  UNL1        0.0534
      5 C          16.1014  -25.0484   13.1096 C.ar    1  UNL1        0.0058
      6 C          15.0849  -25.8922   13.4946 C.ar    1  UNL1        0.0163
      7 C          18.0228  -23.5662   13.6651 C.2     1  UNL1        0.2459
      8 O          17.7667  -22.5281   13.0860 O.2     1  UNL1       -0.2701
      9 N          19.3033  -23.8903   13.9329 N.am    1  UNL1       -0.3005
     10 H          19.5107  -24.7308   14.4017 H       1  UNL1        0.1497
     11 C          20.3867  -22.9918   13.5263 C.3     1  UNL1        0.0940
     12 C          21.4142  -22.8884   14.6551 C.3     1  UNL1        0.0429
     13 C          20.9937  -21.8100   15.6201 C.2     1  UNL1       -0.0468
     14 C          21.3400  -20.5909   15.3566 C.2     1  UNL1       -0.0346
     15 C          21.0039  -19.4147   16.2259 C.3     1  UNL1        0.0254
     16 C          19.8742  -19.7789   17.1917 C.3     1  UNL1        0.0050
     17 C          20.2303  -21.1041   17.8772 C.3     1  UNL1        0.0047
     18 C          20.1943  -22.2154   16.8236 C.3     1  UNL1        0.0218
     19 C          14.0883  -28.4700   15.2920 C.3     1  UNL1        0.1392
     20 N          13.8558  -27.0249   15.2295 N.pl3   1  UNL1       -0.1884
     21 S          12.3692  -26.4078   15.6186 S.O2    1  UNL1        0.0823
     22 O          12.1892  -26.6292   17.0107 O.2     1  UNL1       -0.1492
     23 O          12.3026  -25.1124   15.0384 O.2     1  UNL1       -0.1492
     24 C          11.1640  -27.3922   14.7921 C.ar    1  UNL1        0.1549
     25 C          10.7741  -27.3534   13.4945 C.ar    1  UNL1        0.0274
     26 C           9.7992  -28.2322   13.0610 C.ar    1  UNL1        0.0089
     27 C           9.2619  -29.1068   13.9462 C.ar    1  UNL1        0.0368
     28 S          10.1449  -28.7048   15.4448 S.2     1  UNL1       -0.0665
@<TRIPOS>BOND
     1    19    20    1
     2    20     1    1
     3    20    21    1
     4     1     6   ar
     5     1     2   ar
     6     2     3   ar
     7     3     4   ar
     8     4     5   ar
     9     4     7    1
    10     5     6   ar
    11     7     8    2
    12     7     9   am
    13     9    11    1
    14    11    12    1
    15    12    13    1
    16    13    18    1
    17    13    14    2
    18    14    15    1
    19    15    16    1
    20    16    17    1
    21    17    18    1
    22    21    22    2
    23    21    23    2
    24    21    24    1
    25    24    28   ar
    26    24    25   ar
    27    25    26   ar
    28    26    27   ar
    29    27    28   ar
    30     9    10    1
#	Name:			ZINC13744227
#	Creating user name:	trannguyen
#	Creation time:		Wed Dec  7 14:36:19 2022


#	Modifying user name:	trannguyen
#	Modification time:	Wed Dec  7 14:36:19 2022

@<TRIPOS>MOLECULE
ZINC13744227
 40 43 0 0 0
SMALL
GASTEIGER

@<TRIPOS>ATOM
      1 C          15.9243  -25.0206   13.9117 C.ar    1  UNL1        0.0500
      2 C          16.2018  -25.0131   12.5508 C.ar    1  UNL1        0.0147
      3 C          17.5102  -25.0781   12.1140 C.ar    1  UNL1        0.0010
      4 C          18.5432  -25.1617   13.0299 C.ar    1  UNL1       -0.0039
      5 C          18.2699  -25.1755   14.3852 C.ar    1  UNL1       -0.0170
      6 C          16.9636  -25.1050   14.8286 C.ar    1  UNL1        0.0107
      7 C          13.9549  -26.0702   14.7363 C.2     1  UNL1        0.2262
      8 O          14.4885  -27.1512   14.6030 O.2     1  UNL1       -0.2748
      9 N          14.5999  -24.9490   14.3577 N.am    1  UNL1       -0.2839
     10 H          14.1394  -24.0797   14.3950 H       1  UNL1        0.1549
     11 C          12.5730  -25.9802   15.3306 C.3     1  UNL1        0.0871
     12 C          11.5742  -26.6812   14.4076 C.3     1  UNL1        0.0309
     13 C          11.3528  -28.1157   14.8913 C.3     1  UNL1        0.0932
     14 C           9.3950  -29.0595   15.9930 C.2     1  UNL1        0.4014
     15 O           9.3469  -29.9032   15.1201 O.2     1  UNL1       -0.2264
     16 N          10.3609  -28.1198   15.9695 N.am    1  UNL1       -0.2707
     17 H          10.4000  -27.4361   16.6769 H       1  UNL1        0.1527
     18 O           8.4834  -29.0632   16.9839 O.3     1  UNL1       -0.4419
     19 C           9.7859  -30.9008   17.9096 C.3     1  UNL1        0.0437
     20 C           8.8571  -29.7254   18.2209 C.3     1  UNL1        0.1378
     21 C           9.5796  -28.7321   19.1331 C.3     1  UNL1        0.0437
     22 C           7.5996  -30.2413   18.9233 C.3     1  UNL1        0.0437
     23 C          19.3985  -25.2672   15.3796 C.3     1  UNL1        0.0497
     24 C          19.9354  -23.8869   15.6586 C.ar    1  UNL1        0.0419
     25 C          20.8928  -23.3241   14.8318 C.ar    1  UNL1       -0.0903
     26 C          21.3602  -22.0295   15.1304 C.ar    1  UNL1       -0.0073
     27 C          20.8877  -21.3743   16.2135 C.ar    1  UNL1        0.1210
     28 O          19.9630  -21.9245   17.0073 O.2     1  UNL1       -0.4261
     29 C          19.4782  -23.1553   16.7616 C.ar    1  UNL1        0.3405
     30 O          18.6371  -23.6360   17.5032 O.2     1  UNL1       -0.2449
     31 C          21.4557  -20.0082   16.4928 C.3     1  UNL1        0.0643
     32 C          20.7725  -18.9316   15.7118 C.3     1  UNL1        0.0079
     33 C          21.1592  -18.7555   14.2575 C.3     1  UNL1        0.0005
     34 C          20.5537  -19.8811   13.3997 C.3     1  UNL1        0.0004
     35 C          21.7046  -20.8405   12.9963 C.3     1  UNL1        0.0047
     36 C          22.3876  -21.3486   14.2655 C.3     1  UNL1        0.0279
     37 O          21.3655  -24.0008   13.7587 O.co2   1  UNL1       -0.8731
     38 C          20.5146  -26.1421   14.8053 C.3     1  UNL1        0.0083
     39 C          20.2843  -27.6544   14.7797 C.3     1  UNL1        0.0007
     40 C          21.2731  -27.0479   15.7773 C.3     1  UNL1        0.0007
@<TRIPOS>UNITY_ATOM_ATTR
37 1
charge -1
@<TRIPOS>BOND
     1    19    20    1
     2    20    21    1
     3    20    22    1
     4    20    18    1
     5    18    14    1
     6    14    15    2
     7    14    16   am
     8    16    13    1
     9    13    12    1
    10    12    11    1
    11    11     7    1
    12     7     8    2
    13     7     9   am
    14     9     1    1
    15     1     6   ar
    16     1     2   ar
    17     2     3   ar
    18     3     4   ar
    19     4     5   ar
    20     5     6   ar
    21     5    23    1
    22    23    24    1
    23    23    38    1
    24    24    29   ar
    25    24    25   ar
    26    25    26   ar
    27    25    37    1
    28    26    36    1
    29    26    27   ar
    30    27    28   ar
    31    27    31    1
    32    28    29   ar
    33    29    30    2
    34    31    32    1
    35    32    33    1
    36    33    34    1
    37    34    35    1
    38    35    36    1
    39    38    40    1
    40    38    39    1
    41    39    40    1
    42    16    17    1
    43     9    10    1
#	Name:			ZINC13749384
#	Creating user name:	trannguyen
#	Creation time:		Wed Dec  7 14:36:19 2022


#	Modifying user name:	trannguyen
#	Modification time:	Wed Dec  7 14:36:19 2022

@<TRIPOS>MOLECULE
ZINC13749384
 37 40 0 0 0
SMALL
GASTEIGER

@<TRIPOS>ATOM
      1 C          15.0681  -25.4487   14.8490 C.2     1  UNL1        0.1389
      2 S          16.0760  -25.6693   16.2152 S.2     1  UNL1       -0.0182
      3 N          13.7578  -25.1798   15.0146 N.am    1  UNL1       -0.2957
      4 H          13.4366  -24.2502   14.9708 H       1  UNL1        0.1539
      5 C          11.0680  -28.2833   15.7117 C.ar    1  UNL1        0.0894
      6 C          11.6749  -27.6441   16.7772 C.ar    1  UNL1        0.0182
      7 C          12.5708  -26.6180   16.5493 C.ar    1  UNL1        0.0159
      8 C          12.8543  -26.2216   15.2487 C.ar    1  UNL1        0.0496
      9 C          12.2389  -26.8622   14.1811 C.ar    1  UNL1        0.0159
     10 C          11.3475  -27.8907   14.4155 C.ar    1  UNL1        0.0182
     11 S           9.9302  -29.5961   16.0065 S.O2    1  UNL1       -0.0559
     12 O          10.5635  -30.4861   16.9153 O.2     1  UNL1       -0.1841
     13 O           9.4563  -30.0161   14.7344 O.2     1  UNL1       -0.1841
     14 N           8.6320  -28.9487   16.8050 N.pl3   1  UNL1       -0.5049
     15 C           7.9242  -29.9497   20.6767 C.ar    1  UNL1        0.0412
     16 C           8.7568  -28.8876   20.3608 C.ar    1  UNL1        0.1000
     17 N           8.9659  -28.5876   19.0895 N.ar    1  UNL1       -0.2485
     18 C           8.3907  -29.2898   18.1245 C.ar    1  UNL1        0.0590
     19 N           7.5899  -30.3107   18.3925 N.ar    1  UNL1       -0.2485
     20 C           7.3384  -30.6628   19.6425 C.ar    1  UNL1        0.1000
     21 N          15.5848  -25.5440   13.6079 N.am    1  UNL1       -0.2957
     22 H          15.1339  -26.0950   12.9279 H       1  UNL1        0.1539
     23 C          16.7636  -24.8590   13.2854 C.ar    1  UNL1        0.0496
     24 C          17.9262  -25.5679   13.0128 C.ar    1  UNL1        0.0159
     25 C          19.0866  -24.8931   12.6902 C.ar    1  UNL1        0.0159
     26 C          19.0938  -23.5048   12.6481 C.ar    1  UNL1        0.0495
     27 C          17.9322  -22.7957   12.9259 C.ar    1  UNL1        0.0159
     28 C          16.7708  -23.4709   13.2438 C.ar    1  UNL1        0.0159
     29 N          20.2713  -22.8205   12.3255 N.pl3   1  UNL1       -0.2965
     30 H          20.7854  -23.0754   11.5255 H       1  UNL1        0.1537
     31 C          20.7155  -21.7797   13.1354 C.ar    1  UNL1        0.1540
     32 C          21.2309  -22.0497   14.4034 C.ar    1  UNL1        0.0387
     33 C          21.6638  -20.9795   15.1689 C.ar    1  UNL1        0.0355
     34 C          21.5487  -19.7033   14.6313 C.ar    1  UNL1        0.1600
     35 N          21.0439  -19.5397   13.4238 N.ar    1  UNL1       -0.1352
     36 N          20.6456  -20.5278   12.7081 N.ar    1  UNL1       -0.1320
     37 CL         22.0699  -18.3245   15.5484 Cl      1  UNL1       -0.0594
@<TRIPOS>UNITY_ATOM_ATTR
14 1
charge -1
@<TRIPOS>BOND
     1    15    20   ar
     2    15    16   ar
     3    16    17   ar
     4    17    18   ar
     5    18    19   ar
     6    18    14    1
     7    19    20   ar
     8    14    11    1
     9    11    12    2
    10    11    13    2
    11    11     5    1
    12     5    10   ar
    13     5     6   ar
    14     6     7   ar
    15     7     8   ar
    16     8     9   ar
    17     8     3    1
    18     9    10   ar
    19     3     1    1
    20     1     2    2
    21     1    21    1
    22    21    23    1
    23    23    28   ar
    24    23    24   ar
    25    24    25   ar
    26    25    26   ar
    27    26    27   ar
    28    26    29    1
    29    27    28   ar
    30    29    31    1
    31    31    36   ar
    32    31    32   ar
    33    32    33   ar
    34    33    34   ar
    35    34    35   ar
    36    34    37    1
    37    35    36   ar
    38     3     4    1
    39    21    22    1
    40    29    30    1
#	Name:			ZINC13749516
#	Creating user name:	trannguyen
#	Creation time:		Wed Dec  7 14:36:20 2022


#	Modifying user name:	trannguyen
#	Modification time:	Wed Dec  7 14:36:20 2022

@<TRIPOS>MOLECULE
ZINC13749516
 35 37 0 0 0
SMALL
GASTEIGER

@<TRIPOS>ATOM
      1 N          16.2999  -25.7251   21.2629 N.am    1  UNL1       -0.2959
      2 H          16.1551  -25.3416   22.1580 H       1  UNL1        0.1539
      3 C          17.2521  -25.1622   20.4064 C.ar    1  UNL1        0.0496
      4 C          16.8880  -24.1449   19.5338 C.ar    1  UNL1        0.0159
      5 C          17.8315  -23.5880   18.6928 C.ar    1  UNL1        0.0182
      6 C          19.1349  -24.0495   18.7115 C.ar    1  UNL1        0.0894
      7 C          19.4993  -25.0659   19.5755 C.ar    1  UNL1        0.0182
      8 C          18.5619  -25.6234   20.4227 C.ar    1  UNL1        0.0159
      9 S          20.3337  -23.3414   17.6318 S.O2    1  UNL1       -0.0568
     10 O          21.5826  -23.9290   17.9702 O.2     1  UNL1       -0.1841
     11 O          19.7901  -23.4097   16.3207 O.2     1  UNL1       -0.1841
     12 N          20.4479  -21.7341   18.0136 N.pl3   1  UNL1       -0.5191
     13 C          20.8020  -20.8103   17.0357 C.ar    1  UNL1       -0.0040
     14 C          20.1185  -19.5983   16.9366 C.ar    1  UNL1       -0.0008
     15 C          20.5130  -18.7101   15.9494 C.ar    1  UNL1        0.0323
     16 C          21.5569  -19.0855   15.1126 C.ar    1  UNL1        0.1597
     17 N          22.1437  -20.2553   15.2751 N.ar    1  UNL1       -0.1381
     18 N          21.7860  -21.0800   16.1912 N.ar    1  UNL1       -0.1712
     19 CL         22.0887  -18.0148   13.8540 Cl      1  UNL1       -0.0594
     20 C          15.5810  -26.7926   20.8627 C.2     1  UNL1        0.1351
     21 S          16.1314  -28.3755   21.2126 S.2     1  UNL1       -0.0185
     22 N          14.4285  -26.6138   20.1871 N.am    1  UNL1       -0.3156
     23 H          13.8417  -25.8545   20.4068 H       1  UNL1        0.1485
     24 C          14.0490  -27.5496   19.1257 C.3     1  UNL1        0.0931
     25 C          14.6923  -27.1138   17.8076 C.3     1  UNL1        0.0477
     26 C          12.1306  -28.1658   14.5489 C.ar    1  UNL1        0.1724
     27 C          13.4926  -28.0163   14.3428 C.ar    1  UNL1        0.0397
     28 C          14.3172  -27.6706   15.3971 C.ar    1  UNL1       -0.0009
     29 C          13.7878  -27.4845   16.6606 C.ar    1  UNL1       -0.0173
     30 C          12.4298  -27.6322   16.8730 C.ar    1  UNL1        0.0358
     31 C          11.5969  -27.9729   15.8194 C.ar    1  UNL1        0.1721
     32 C          11.3970  -29.8448   13.0326 C.3     1  UNL1        0.2526
     33 O          11.3171  -28.5008   13.5117 O.3     1  UNL1       -0.4684
     34 O          10.2607  -28.1190   16.0267 O.3     1  UNL1       -0.4684
     35 C           9.8451  -29.2343   16.8175 C.3     1  UNL1        0.2526
@<TRIPOS>UNITY_ATOM_ATTR
12 1
charge -1
@<TRIPOS>BOND
     1    32    33    1
     2    33    26    1
     3    26    31   ar
     4    26    27   ar
     5    27    28   ar
     6    28    29   ar
     7    29    30   ar
     8    29    25    1
     9    30    31   ar
    10    31    34    1
    11    34    35    1
    12    25    24    1
    13    24    22    1
    14    22    20    1
    15    20    21    2
    16    20     1    1
    17     1     3    1
    18     3     8   ar
    19     3     4   ar
    20     4     5   ar
    21     5     6   ar
    22     6     7   ar
    23     6     9    1
    24     7     8   ar
    25     9    10    2
    26     9    11    2
    27     9    12    1
    28    12    13    1
    29    13    18   ar
    30    13    14   ar
    31    14    15   ar
    32    15    16   ar
    33    16    17   ar
    34    16    19    1
    35    17    18   ar
    36    22    23    1
    37     1     2    1
#	Name:			ZINC13855035
#	Creating user name:	trannguyen
#	Creation time:		Wed Dec  7 14:36:20 2022


#	Modifying user name:	trannguyen
#	Modification time:	Wed Dec  7 14:36:20 2022

@<TRIPOS>MOLECULE
ZINC13855035
 39 41 0 0 0
SMALL
GASTEIGER

@<TRIPOS>ATOM
      1 N          19.8283  -21.3476   14.3011 N.am    1  UNL1       -0.2992
      2 C          19.5093  -22.1110   13.2371 C.2     1  UNL1        0.2459
      3 O          20.1308  -21.9964   12.1984 O.2     1  UNL1       -0.2701
      4 H          19.3251  -21.4404   15.1422 H       1  UNL1        0.1498
      5 C          18.4056  -23.0861   13.3330 C.ar    1  UNL1        0.0534
      6 C          17.1432  -22.7673   12.8251 C.ar    1  UNL1        0.0058
      7 C          16.1175  -23.6813   12.9111 C.ar    1  UNL1        0.0148
      8 C          16.3334  -24.9171   13.5131 C.ar    1  UNL1        0.0505
      9 C          17.5876  -25.2355   14.0250 C.ar    1  UNL1        0.0148
     10 C          18.6191  -24.3281   13.9372 C.ar    1  UNL1        0.0058
     11 N          15.2912  -25.8377   13.6041 N.am    1  UNL1       -0.2804
     12 C          14.4099  -25.7597   14.6207 C.2     1  UNL1        0.2495
     13 O          14.4656  -24.8313   15.4035 O.2     1  UNL1       -0.2698
     14 H          15.1988  -26.5452   12.9257 H       1  UNL1        0.1552
     15 C          13.3755  -26.8028   14.7839 C.ar    1  UNL1        0.0537
     16 C          12.4907  -26.7500   15.8623 C.ar    1  UNL1        0.0042
     17 C          11.5235  -27.7234   16.0051 C.ar    1  UNL1       -0.0041
     18 C          11.4373  -28.7570   15.0895 C.ar    1  UNL1       -0.0218
     19 C          12.3149  -28.8185   14.0215 C.ar    1  UNL1       -0.0041
     20 C          13.2828  -27.8482   13.8634 C.ar    1  UNL1        0.0042
     21 C          10.3826  -29.8205   15.2557 C.3     1  UNL1        0.0310
     22 C          20.9239  -20.3797   14.2059 C.3     1  UNL1        0.1109
     23 C          22.1757  -20.9596   14.8674 C.3     1  UNL1        0.1109
     24 C          22.7716  -23.2341   14.2283 C.2     1  UNL1        0.2460
     25 O          22.2078  -23.6318   15.2295 O.2     1  UNL1       -0.2701
     26 N          22.8115  -21.9147   13.9565 N.am    1  UNL1       -0.2992
     27 H          23.2680  -21.5926   13.1458 H       1  UNL1        0.1498
     28 C          24.6239  -26.0021   11.5884 C.ar    1  UNL1        0.1722
     29 C          25.0687  -24.6880   11.6402 C.ar    1  UNL1        0.0402
     30 C          24.4717  -23.7885   12.4964 C.ar    1  UNL1        0.0078
     31 C          23.4122  -24.1965   13.3105 C.ar    1  UNL1        0.0566
     32 C          22.9605  -25.5176   13.2544 C.ar    1  UNL1        0.0445
     33 C          23.5637  -26.4145   12.3941 C.ar    1  UNL1        0.1723
     34 O          25.2192  -26.8863   10.7470 O.3     1  UNL1       -0.4724
     35 C          25.8034  -26.4349    8.4459 C.3     1  UNL1        0.0512
     36 C          24.7255  -26.9398    9.4070 C.3     1  UNL1        0.2057
     37 O          23.1268  -27.7012   12.3374 O.3     1  UNL1       -0.4724
     38 C          21.8884  -27.9369   11.6644 C.3     1  UNL1        0.2057
     39 C          21.3451  -29.3107   12.0622 C.3     1  UNL1        0.0512
@<TRIPOS>BOND
     1    35    36    1
     2    36    34    1
     3    34    28    1
     4    28    33   ar
     5    28    29   ar
     6    29    30   ar
     7    30    31   ar
     8    31    32   ar
     9    31    24    1
    10    32    33   ar
    11    33    37    1
    12    37    38    1
    13    38    39    1
    14    24    25    2
    15    24    26   am
    16    26    23    1
    17    23    22    1
    18    22     1    1
    19     1     2   am
    20     2     3    2
    21     2     5    1
    22     5    10   ar
    23     5     6   ar
    24     6     7   ar
    25     7     8   ar
    26     8     9   ar
    27     8    11    1
    28     9    10   ar
    29    11    12   am
    30    12    13    2
    31    12    15    1
    32    15    20   ar
    33    15    16   ar
    34    16    17   ar
    35    17    18   ar
    36    18    19   ar
    37    18    21    1
    38    19    20   ar
    39    26    27    1
    40     1     4    1
    41    11    14    1
#	Name:			ZINC13940522
#	Creating user name:	trannguyen
#	Creation time:		Wed Dec  7 14:36:19 2022


#	Modifying user name:	trannguyen
#	Modification time:	Wed Dec  7 14:36:19 2022

@<TRIPOS>MOLECULE
ZINC13940522
 41 44 0 0 0
SMALL
GASTEIGER

@<TRIPOS>ATOM
      1 C          19.6961  -25.1104   13.1441 C.ar    1  UNL1        0.2409
      2 N          19.9034  -24.4831   14.2982 N.ar    1  UNL1       -0.1794
      3 C          20.9345  -24.8249   15.0645 C.ar    1  UNL1        0.2254
      4 N          21.7584  -25.7938   14.6770 N.ar    1  UNL1       -0.1805
      5 C          21.5513  -26.4209   13.5231 C.ar    1  UNL1        0.2254
      6 N          20.5234  -26.0757   12.7542 N.ar    1  UNL1       -0.1794
      7 N          18.6248  -24.7557   12.3482 N.pl3   1  UNL1       -0.2043
      8 H          18.7542  -24.1311   11.5984 H       1  UNL1        0.1775
      9 C          16.5823  -24.7216   13.4934 C.2     1  UNL1        0.1176
     10 N          17.3539  -25.2849   12.6079 N.2     1  UNL1       -0.1774
     11 C          15.1672  -26.5427   14.1446 C.2     1  UNL1        0.0016
     12 C          15.2962  -25.2571   13.7561 C.2     1  UNL1        0.0222
     13 C          11.3171  -28.1444   14.9308 C.ar    1  UNL1        0.0479
     14 C          11.9596  -27.3768   15.8970 C.ar    1  UNL1        0.0145
     15 C          13.2091  -26.8553   15.6461 C.ar    1  UNL1        0.0013
     16 C          13.8325  -27.0983   14.4173 C.ar    1  UNL1        0.0001
     17 C          13.1806  -27.8664   13.4465 C.ar    1  UNL1        0.0013
     18 C          11.9332  -28.3882   13.7075 C.ar    1  UNL1        0.0145
     19 C           9.6897  -29.0734   16.5505 C.3     1  UNL1        0.1122
     20 N          10.0516  -28.6708   15.1892 N.pl3   1  UNL1       -0.3041
     21 C           9.0843  -28.8212   14.0993 C.3     1  UNL1        0.1122
     22 N          22.4074  -27.4275   13.1209 N.pl3   1  UNL1       -0.2824
     23 H          22.4584  -28.2653   13.6353 H       1  UNL1        0.1551
     24 C          23.2030  -27.2562   11.9809 C.ar    1  UNL1        0.0507
     25 C          23.0390  -28.0954   10.8870 C.ar    1  UNL1        0.0178
     26 C          23.8235  -27.9255    9.7632 C.ar    1  UNL1        0.0382
     27 C          24.7747  -26.9165    9.7269 C.ar    1  UNL1        0.1388
     28 C          24.9393  -26.0780   10.8196 C.ar    1  UNL1        0.0382
     29 C          24.1560  -26.2469   11.9443 C.ar    1  UNL1        0.0178
     30 O          25.5465  -26.7496    8.6199 O.3     1  UNL1       -0.4714
     31 C          24.8672  -26.6109    7.3704 C.3     1  UNL1        0.2525
     32 N          21.1501  -24.1731   16.2630 N.pl3   1  UNL1       -0.2824
     33 H          21.4708  -24.6762   17.0462 H       1  UNL1        0.1551
     34 C          20.9127  -22.7965   16.3642 C.ar    1  UNL1        0.0507
     35 C          21.3898  -21.9356   15.3848 C.ar    1  UNL1        0.0178
     36 C          21.1512  -20.5789   15.4828 C.ar    1  UNL1        0.0382
     37 C          20.4442  -20.0750   16.5646 C.ar    1  UNL1        0.1388
     38 C          19.9718  -20.9339   17.5462 C.ar    1  UNL1        0.0382
     39 C          20.2051  -22.2914   17.4469 C.ar    1  UNL1        0.0178
     40 O          20.2137  -18.7384   16.6628 O.3     1  UNL1       -0.4714
     41 C          21.1281  -17.8712   15.9892 C.3     1  UNL1        0.2525
@<TRIPOS>BOND
     1    19    20    1
     2    20    21    1
     3    20    13    1
     4    13    18   ar
     5    13    14   ar
     6    14    15   ar
     7    15    16   ar
     8    16    17   ar
     9    16    11    1
    10    17    18   ar
    11    11    12    2
    12    12     9    1
    13     9    10    2
    14    10     7    1
    15     7     1    1
    16     1     6   ar
    17     1     2   ar
    18     2     3   ar
    19     3     4   ar
    20     3    32    1
    21     4     5   ar
    22     5     6   ar
    23     5    22    1
    24    22    24    1
    25    24    29   ar
    26    24    25   ar
    27    25    26   ar
    28    26    27   ar
    29    27    28   ar
    30    27    30    1
    31    28    29   ar
    32    30    31    1
    33    32    34    1
    34    34    39   ar
    35    34    35   ar
    36    35    36   ar
    37    36    37   ar
    38    37    38   ar
    39    37    40    1
    40    38    39   ar
    41    40    41    1
    42     7     8    1
    43    22    23    1
    44    32    33    1
#	Name:			ZINC13967958
#	Creating user name:	trannguyen
#	Creation time:		Wed Dec  7 14:36:19 2022


#	Modifying user name:	trannguyen
#	Modification time:	Wed Dec  7 14:36:19 2022

@<TRIPOS>MOLECULE
ZINC13967958
 42 45 0 0 0
SMALL
GASTEIGER

@<TRIPOS>ATOM
      1 C          23.0163  -32.4076   15.4991 C.3     1  UNL1        0.0005
      2 C          22.4157  -32.1145   16.8754 C.3     1  UNL1        0.0096
      3 C          23.0913  -30.8793   17.4743 C.3     1  UNL1        0.0868
      4 N          22.7531  -28.4302   17.3981 N.am    1  UNL1       -0.2058
      5 C          22.2435  -29.6628   17.2051 C.2     1  UNL1        0.2411
      6 O          21.1022  -29.7932   16.8149 O.2     1  UNL1       -0.2734
      7 H          23.6792  -28.3244   17.7149 H       1  UNL1        0.1773
      8 C          21.3677  -26.6931   18.1303 C.2     1  UNL1        0.1206
      9 N          21.9648  -27.2993   17.1479 N.2     1  UNL1       -0.1775
     10 C          16.7607  -25.8076   15.9896 C.ar    1  UNL1        0.0000
     11 C          17.5138  -26.9553   16.2252 C.ar    1  UNL1        0.0000
     12 C          18.7362  -26.8798   16.8236 C.ar    1  UNL1        0.0001
     13 C          19.2383  -25.6335   17.2171 C.ar    1  UNL1        0.0045
     14 C          18.4727  -24.4650   16.9840 C.ar    1  UNL1        0.0002
     15 C          17.2189  -24.5799   16.3596 C.ar    1  UNL1        0.0000
     16 C          18.9783  -23.2144   17.3802 C.ar    1  UNL1        0.0031
     17 C          20.1923  -23.1144   17.9838 C.ar    1  UNL1        0.0367
     18 C          20.9819  -24.2354   18.2348 C.ar    1  UNL1        0.1351
     19 C          20.5408  -25.5067   17.8680 C.ar    1  UNL1        0.0544
     20 O          22.1881  -24.0888   18.8405 O.3     1  UNL1       -0.5055
     21 H          22.4874  -23.2361   19.0881 H       1  UNL1        0.2922
     22 C          21.9274  -32.9534   14.5732 C.3     1  UNL1        0.0005
     23 C          22.2200  -32.5249   13.1338 C.3     1  UNL1        0.0096
     24 C          21.0581  -31.6803   12.6070 C.3     1  UNL1        0.0868
     25 C          21.2726  -30.2380   12.9877 C.2     1  UNL1        0.2411
     26 O          22.3086  -29.6802   12.6920 O.2     1  UNL1       -0.2734
     27 N          20.3135  -29.5679   13.6567 N.am    1  UNL1       -0.2058
     28 H          19.4729  -30.0206   13.8966 H       1  UNL1        0.1773
     29 N          20.5128  -28.2270   14.0105 N.2     1  UNL1       -0.1775
     30 C          20.1870  -27.2807   13.1814 C.2     1  UNL1        0.1206
     31 C          20.3961  -25.8741   13.5526 C.ar    1  UNL1        0.0544
     32 C          19.3533  -24.8771   13.3188 C.ar    1  UNL1        0.0045
     33 C          18.1277  -25.2245   12.7377 C.ar    1  UNL1        0.0001
     34 C          17.1811  -24.2644   12.5368 C.ar    1  UNL1        0.0000
     35 C          17.4159  -22.9410   12.9023 C.ar    1  UNL1        0.0000
     36 C          18.5965  -22.5690   13.4697 C.ar    1  UNL1        0.0000
     37 C          19.5955  -23.5324   13.6913 C.ar    1  UNL1        0.0002
     38 C          20.8265  -23.1858   14.2751 C.ar    1  UNL1        0.0031
     39 C          21.7856  -24.1258   14.4856 C.ar    1  UNL1        0.0367
     40 C          21.5919  -25.4627   14.1413 C.ar    1  UNL1        0.1351
     41 O          22.5753  -26.3689   14.3752 O.3     1  UNL1       -0.5055
     42 H          22.4482  -27.2682   14.1449 H       1  UNL1        0.2922
@<TRIPOS>BOND
     1    10    15   ar
     2    10    11   ar
     3    11    12   ar
     4    12    13   ar
     5    13    19   ar
     6    13    14   ar
     7    14    15   ar
     8    14    16   ar
     9    16    17   ar
    10    17    18   ar
    11    18    19   ar
    12    18    20    1
    13    19     8    1
    14     8     9    2
    15     9     4    1
    16     4     5   am
    17     5     6    2
    18     5     3    1
    19     3     2    1
    20     2     1    1
    21     1    22    1
    22    22    23    1
    23    23    24    1
    24    24    25    1
    25    25    26    2
    26    25    27   am
    27    27    29    1
    28    29    30    2
    29    30    31    1
    30    31    40   ar
    31    31    32   ar
    32    32    37   ar
    33    32    33   ar
    34    33    34   ar
    35    34    35   ar
    36    35    36   ar
    37    36    37   ar
    38    37    38   ar
    39    38    39   ar
    40    39    40   ar
    41    40    41    1
    42     4     7    1
    43    27    28    1
    44    41    42    1
    45    20    21    1
#	Name:			ZINC13968079
#	Creating user name:	trannguyen
#	Creation time:		Wed Dec  7 14:36:20 2022


#	Modifying user name:	trannguyen
#	Modification time:	Wed Dec  7 14:36:20 2022

@<TRIPOS>MOLECULE
ZINC13968079
 34 35 0 0 0
SMALL
GASTEIGER

@<TRIPOS>ATOM
      1 C          20.9428  -28.4116   18.8351 C.3     1  UNL1        0.0964
      2 N          20.4851  -28.0711   16.4282 N.am    1  UNL1       -0.2065
      3 C          21.3779  -28.0523   17.4377 C.2     1  UNL1        0.2416
      4 O          22.5315  -27.7462   17.2215 O.2     1  UNL1       -0.2734
      5 H          19.5488  -28.3196   16.6037 H       1  UNL1        0.1772
      6 C          18.2885  -25.6342   12.8078 C.3     1  UNL1        0.0008
      7 C          17.9685  -25.9807   14.2628 C.3     1  UNL1        0.0060
      8 C          18.5471  -27.3597   14.5969 C.3     1  UNL1        0.0429
      9 C          20.0235  -27.3543   14.2676 C.2     1  UNL1        0.0540
     10 N          20.8895  -27.7370   15.1291 N.2     1  UNL1       -0.1879
     11 C          20.4503  -26.8848   12.8944 C.3     1  UNL1        0.0429
     12 C          19.8027  -25.5231   12.6221 C.3     1  UNL1        0.0060
     13 C          17.6326  -24.3000   12.4466 C.3     1  UNL1        0.0000
     14 C          16.3912  -24.5572   11.5900 C.3     1  UNL1        0.0000
     15 C          18.6249  -23.4399   11.6614 C.3     1  UNL1        0.0000
     16 C          15.7141  -23.3328   13.7219 C.3     1  UNL1        0.0000
     17 C          17.2257  -23.5685   13.7274 C.3     1  UNL1        0.0000
     18 C          21.6448  -27.4953   19.8393 C.3     1  UNL1        0.0964
     19 C          21.0596  -26.1095   19.7491 C.2     1  UNL1        0.2416
     20 O          20.1302  -25.7960   20.4627 O.2     1  UNL1       -0.2734
     21 N          21.5690  -25.2184   18.8756 N.am    1  UNL1       -0.2065
     22 H          22.3234  -25.4729   18.2965 H       1  UNL1        0.1772
     23 N          21.0249  -23.9301   18.7919 N.2     1  UNL1       -0.1879
     24 C          20.5626  -23.5018   17.6777 C.2     1  UNL1        0.0540
     25 C          20.7211  -24.3111   16.4095 C.3     1  UNL1        0.0429
     26 C          21.3172  -23.4144   15.3254 C.3     1  UNL1        0.0060
     27 C          20.4553  -22.1604   15.1698 C.3     1  UNL1        0.0008
     28 C          20.4818  -21.3488   16.4660 C.3     1  UNL1        0.0060
     29 C          19.8493  -22.1705   17.5942 C.3     1  UNL1        0.0429
     30 C          21.0019  -21.3066   14.0239 C.3     1  UNL1        0.0000
     31 C          21.8556  -22.1782   13.1006 C.3     1  UNL1        0.0000
     32 C          19.8368  -20.7119   13.2303 C.3     1  UNL1        0.0000
     33 C          21.8598  -20.1757   14.5949 C.3     1  UNL1        0.0000
     34 C          21.4111  -18.8420   13.9942 C.3     1  UNL1        0.0000
@<TRIPOS>BOND
     1    16    17    1
     2    17    13    1
     3    13    14    1
     4    13    15    1
     5    13     6    1
     6     6    12    1
     7     6     7    1
     8     7     8    1
     9     8     9    1
    10     9    10    2
    11     9    11    1
    12    10     2    1
    13     2     3   am
    14     3     4    2
    15     3     1    1
    16     1    18    1
    17    18    19    1
    18    19    20    2
    19    19    21   am
    20    21    23    1
    21    23    24    2
    22    24    29    1
    23    24    25    1
    24    25    26    1
    25    26    27    1
    26    27    28    1
    27    27    30    1
    28    28    29    1
    29    30    31    1
    30    30    32    1
    31    30    33    1
    32    33    34    1
    33    11    12    1
    34     2     5    1
    35    21    22    1
#	Name:			ZINC13978994
#	Creating user name:	trannguyen
#	Creation time:		Wed Dec  7 14:36:20 2022


#	Modifying user name:	trannguyen
#	Modification time:	Wed Dec  7 14:36:20 2022

@<TRIPOS>MOLECULE
ZINC13978994
 34 35 0 0 0
SMALL
GASTEIGER

@<TRIPOS>ATOM
      1 C          21.0346  -20.2593   16.1454 C.2     1  UNL1        0.1531
      2 S          21.1515  -18.5523   16.0883 S.2     1  UNL1       -0.0170
      3 N          20.6632  -20.9464   15.0470 N.am    1  UNL1       -0.2631
      4 C          21.5850  -21.6168   14.3278 C.2     1  UNL1        0.2719
      5 O          22.7484  -21.6017   14.6689 O.2     1  UNL1       -0.2707
      6 H          19.7185  -20.9587   14.7701 H       1  UNL1        0.1567
      7 C          21.1697  -22.3851   13.0997 C.3     1  UNL1        0.2897
      8 O          21.1038  -23.7787   13.4093 O.3     1  UNL1       -0.4656
      9 C          19.9015  -24.2639   13.8167 C.ar    1  UNL1        0.1393
     10 C          18.7300  -23.6230   13.4408 C.ar    1  UNL1        0.0366
     11 C          17.5088  -24.1220   13.8511 C.ar    1  UNL1       -0.0012
     12 C          17.4542  -25.2518   14.6460 C.ar    1  UNL1       -0.0226
     13 C          18.6207  -25.8892   15.0268 C.ar    1  UNL1       -0.0012
     14 C          19.8440  -25.3978   14.6141 C.ar    1  UNL1        0.0366
     15 C          16.1210  -25.7901   15.0978 C.3     1  UNL1        0.0189
     16 C          15.4579  -24.7840   16.0406 C.3     1  UNL1        0.0044
     17 C          15.2232  -26.0162   13.8798 C.3     1  UNL1        0.0044
     18 C          16.3287  -27.1165   15.8315 C.3     1  UNL1        0.0044
     19 N          21.3138  -20.9161   17.2887 N.am    1  UNL1       -0.2453
     20 H          22.1607  -20.7447   17.7605 H       1  UNL1        0.1718
     21 C          20.6111  -23.1632   17.6405 C.2     1  UNL1        0.2613
     22 O          21.5962  -23.5504   17.0430 O.2     1  UNL1       -0.2686
     23 N          20.3989  -21.8426   17.8057 N.am    1  UNL1       -0.2311
     24 H          19.6010  -21.5290   18.2897 H       1  UNL1        0.1731
     25 C          17.8372  -25.9727   19.2075 C.ar    1  UNL1       -0.0228
     26 C          17.4287  -24.6786   18.9376 C.ar    1  UNL1       -0.0041
     27 C          18.3246  -23.7612   18.4287 C.ar    1  UNL1        0.0042
     28 C          19.6456  -24.1410   18.1861 C.ar    1  UNL1        0.0548
     29 C          20.0511  -25.4481   18.4607 C.ar    1  UNL1        0.0042
     30 C          19.1452  -26.3556   18.9694 C.ar    1  UNL1       -0.0041
     31 C          15.4324  -26.5536   19.3762 C.3     1  UNL1        0.0044
     32 C          16.8530  -26.9694   19.7634 C.3     1  UNL1        0.0189
     33 C          17.1526  -28.3560   19.1901 C.3     1  UNL1        0.0044
     34 C          16.9747  -27.0106   21.2879 C.3     1  UNL1        0.0044
@<TRIPOS>BOND
     1    31    32    1
     2    32    33    1
     3    32    34    1
     4    32    25    1
     5    25    30   ar
     6    25    26   ar
     7    26    27   ar
     8    27    28   ar
     9    28    29   ar
    10    28    21    1
    11    29    30   ar
    12    21    22    2
    13    21    23   am
    14    23    19    1
    15    19     1    1
    16     1     2    2
    17     1     3    1
    18     3     4   am
    19     4     5    2
    20     4     7    1
    21     7     8    1
    22     8     9    1
    23     9    14   ar
    24     9    10   ar
    25    10    11   ar
    26    11    12   ar
    27    12    13   ar
    28    12    15    1
    29    13    14   ar
    30    15    16    1
    31    15    17    1
    32    15    18    1
    33    23    24    1
    34    19    20    1
    35     3     6    1
#	Name:			ZINC13997519
#	Creating user name:	trannguyen
#	Creation time:		Wed Dec  7 14:36:19 2022


#	Modifying user name:	trannguyen
#	Modification time:	Wed Dec  7 14:36:19 2022

@<TRIPOS>MOLECULE
ZINC13997519
 40 41 0 0 0
SMALL
GASTEIGER

@<TRIPOS>ATOM
      1 N          20.0961  -20.8755   14.1928 N.am    1  UNL1       -0.2311
      2 C          20.2991  -22.1882   13.9649 C.2     1  UNL1        0.2613
      3 O          21.4285  -22.6109   13.8095 O.2     1  UNL1       -0.2686
      4 H          19.1816  -20.5332   14.3186 H       1  UNL1        0.1731
      5 C          19.1503  -23.1129   13.9041 C.ar    1  UNL1        0.0549
      6 C          18.0389  -22.7982   13.1175 C.ar    1  UNL1        0.0058
      7 C          16.9692  -23.6629   13.0626 C.ar    1  UNL1        0.0148
      8 C          16.9940  -24.8496   13.7888 C.ar    1  UNL1        0.0505
      9 C          18.0967  -25.1633   14.5775 C.ar    1  UNL1        0.0148
     10 C          19.1718  -24.3053   14.6327 C.ar    1  UNL1        0.0058
     11 N          15.9098  -25.7230   13.7307 N.am    1  UNL1       -0.2804
     12 C          14.9371  -25.6526   14.6610 C.2     1  UNL1        0.2495
     13 O          15.0516  -24.8941   15.6039 O.2     1  UNL1       -0.2698
     14 H          15.8543  -26.3916   13.0101 H       1  UNL1        0.1552
     15 C          13.7311  -26.4977   14.5346 C.ar    1  UNL1        0.0537
     16 C          13.5484  -27.2939   13.4026 C.ar    1  UNL1        0.0042
     17 C          12.4228  -28.0839   13.2932 C.ar    1  UNL1       -0.0041
     18 C          11.4707  -28.0800   14.2973 C.ar    1  UNL1       -0.0228
     19 C          11.6433  -27.2896   15.4197 C.ar    1  UNL1       -0.0041
     20 C          12.7669  -26.4989   15.5442 C.ar    1  UNL1        0.0042
     21 C          10.2406  -28.9409   14.1680 C.3     1  UNL1        0.0189
     22 C          10.6564  -30.3836   13.8736 C.3     1  UNL1        0.0044
     23 C           9.4467  -28.8955   15.4751 C.3     1  UNL1        0.0044
     24 C           9.3698  -28.4174   13.0241 C.3     1  UNL1        0.0044
     25 N          21.1867  -19.9978   14.2506 N.am    1  UNL1       -0.2453
     26 H          21.6007  -19.6717   13.4191 H       1  UNL1        0.1718
     27 C          21.6689  -19.5999   15.4446 C.2     1  UNL1        0.1531
     28 S          22.1717  -17.9787   15.6676 S.2     1  UNL1       -0.0170
     29 C          20.7001  -20.6698   17.2794 C.2     1  UNL1        0.2279
     30 O          19.6731  -20.0517   17.0975 O.2     1  UNL1       -0.2747
     31 N          21.7553  -20.4784   16.4631 N.am    1  UNL1       -0.2662
     32 H          22.5893  -20.9804   16.6107 H       1  UNL1        0.1565
     33 C          20.7968  -21.6521   18.4180 C.3     1  UNL1        0.0971
     34 C          20.2403  -23.0059   17.9723 C.3     1  UNL1        0.1191
     35 C          21.0689  -24.1120   18.5730 C.2     1  UNL1        0.3175
     36 O          22.2462  -23.9393   18.7828 O.2     1  UNL1       -0.2501
     37 O          20.4990  -25.2892   18.8751 O.3     1  UNL1       -0.4485
     38 C          19.3570  -25.6934   18.0746 C.3     1  UNL1        0.2084
     39 C          20.2616  -27.8745   18.8912 C.3     1  UNL1        0.0040
     40 C          19.0142  -27.1537   18.3758 C.3     1  UNL1        0.0474
@<TRIPOS>BOND
     1    39    40    1
     2    40    38    1
     3    38    37    1
     4    37    35    1
     5    35    36    2
     6    35    34    1
     7    34    33    1
     8    33    29    1
     9    29    30    2
    10    29    31   am
    11    31    27    1
    12    27    28    2
    13    27    25    1
    14    25     1    1
    15     1     2   am
    16     2     3    2
    17     2     5    1
    18     5    10   ar
    19     5     6   ar
    20     6     7   ar
    21     7     8   ar
    22     8     9   ar
    23     8    11    1
    24     9    10   ar
    25    11    12   am
    26    12    13    2
    27    12    15    1
    28    15    20   ar
    29    15    16   ar
    30    16    17   ar
    31    17    18   ar
    32    18    19   ar
    33    18    21    1
    34    19    20   ar
    35    21    22    1
    36    21    23    1
    37    21    24    1
    38    31    32    1
    39    25    26    1
    40     1     4    1
    41    11    14    1
#	Name:			ZINC14036856
#	Creating user name:	trannguyen
#	Creation time:		Wed Dec  7 14:36:19 2022


#	Modifying user name:	trannguyen
#	Modification time:	Wed Dec  7 14:36:19 2022

@<TRIPOS>MOLECULE
ZINC14036856
 36 38 0 0 0
SMALL
GASTEIGER

@<TRIPOS>ATOM
      1 C          19.5461  -24.5093   18.8388 C.2     1  UNL1       -0.0344
      2 S          20.1345  -25.5785   20.0395 S.2     1  UNL1       -0.0617
      3 C          18.3767  -25.8306   17.3104 C.2     1  UNL1        0.2485
      4 O          19.3747  -26.4994   17.1251 O.2     1  UNL1       -0.2698
      5 N          18.4081  -24.7991   18.1773 N.am    1  UNL1       -0.2955
      6 H          17.5999  -24.2573   18.3274 H       1  UNL1        0.1538
      7 C          14.7922  -26.7434   15.2257 C.ar    1  UNL1        0.1386
      8 C          15.0272  -25.4457   15.6650 C.ar    1  UNL1        0.0370
      9 C          16.1882  -25.1456   16.3416 C.ar    1  UNL1        0.0076
     10 C          17.1312  -26.1478   16.5864 C.ar    1  UNL1        0.0538
     11 C          16.8910  -27.4514   16.1429 C.ar    1  UNL1        0.0076
     12 C          15.7274  -27.7431   15.4670 C.ar    1  UNL1        0.0370
     13 O          13.6467  -27.0351   14.5592 O.3     1  UNL1       -0.4755
     14 C          12.4164  -26.7444   15.2256 C.3     1  UNL1        0.2054
     15 C          11.2790  -26.7069   14.2030 C.3     1  UNL1        0.0473
     16 C          10.0713  -28.5867   15.3210 C.3     1  UNL1        0.0001
     17 C          10.7154  -28.1169   14.0152 C.3     1  UNL1        0.0037
     18 C           9.6634  -28.1018   12.9043 C.3     1  UNL1        0.0001
     19 N          20.2209  -23.3775   18.5551 N.am    1  UNL1       -0.6271
     20 C          20.4308  -23.0037   17.2237 C.ar    1  UNL1       -0.1235
     21 C          19.8676  -21.8331   16.7325 C.ar    1  UNL1       -0.0232
     22 C          20.0815  -21.4639   15.4190 C.ar    1  UNL1        0.0180
     23 C          20.8461  -22.2642   14.5899 C.ar    1  UNL1        0.1218
     24 C          21.4036  -23.4332   15.0744 C.ar    1  UNL1        0.0180
     25 C          21.1983  -23.8052   16.3885 C.ar    1  UNL1       -0.0232
     26 S          21.1100  -21.7935   12.9126 S.O2    1  UNL1        0.0602
     27 O          20.6378  -20.4591   12.7861 O.2     1  UNL1       -0.1530
     28 O          22.4442  -22.1631   12.5922 O.2     1  UNL1       -0.1530
     29 N          20.1202  -22.7363   11.9779 N.3     1  UNL1       -0.1808
     30 H          20.7163  -23.4270   11.5218 H       1  UNL1        0.1487
     31 C          19.0145  -23.4734   12.5946 C.3     1  UNL1        0.0755
     32 C          18.9026  -24.8572   11.9515 C.3     1  UNL1        0.0174
     33 C          17.7478  -25.6269   12.5955 C.3     1  UNL1        0.0014
     34 C          16.4417  -24.8588   12.3832 C.3     1  UNL1        0.0001
     35 C          16.5536  -23.4750   13.0263 C.3     1  UNL1        0.0014
     36 C          17.7084  -22.7053   12.3823 C.3     1  UNL1        0.0174
@<TRIPOS>UNITY_ATOM_ATTR
19 1
charge -1
@<TRIPOS>BOND
     1    16    17    1
     2    17    18    1
     3    17    15    1
     4    15    14    1
     5    14    13    1
     6    13     7    1
     7     7    12   ar
     8     7     8   ar
     9     8     9   ar
    10     9    10   ar
    11    10    11   ar
    12    10     3    1
    13    11    12   ar
    14     3     4    2
    15     3     5   am
    16     5     1    1
    17     1     2    2
    18     1    19    1
    19    19    20    1
    20    20    25   ar
    21    20    21   ar
    22    21    22   ar
    23    22    23   ar
    24    23    24   ar
    25    23    26    1
    26    24    25   ar
    27    26    27    2
    28    26    28    2
    29    26    29    1
    30    29    31    1
    31    31    36    1
    32    31    32    1
    33    32    33    1
    34    33    34    1
    35    34    35    1
    36    35    36    1
    37     5     6    1
    38    29    30    1
#	Name:			ZINC14040575
#	Creating user name:	trannguyen
#	Creation time:		Wed Dec  7 14:36:19 2022


#	Modifying user name:	trannguyen
#	Modification time:	Wed Dec  7 14:36:19 2022

@<TRIPOS>MOLECULE
ZINC14040575
 41 44 0 0 0
SMALL
GASTEIGER

@<TRIPOS>ATOM
      1 C          21.8422  -25.3565   13.8982 C.2     1  UNL1        0.2614
      2 O          21.7713  -25.1502   15.0943 O.2     1  UNL1       -0.2686
      3 N          22.0669  -24.3334   13.0501 N.am    1  UNL1       -0.2301
      4 H          22.1244  -24.5004   12.0816 H       1  UNL1        0.1731
      5 C          21.3822  -29.3011   12.3929 C.ar    1  UNL1        0.0505
      6 C          22.3130  -28.4422   11.8165 C.ar    1  UNL1        0.0148
      7 C          22.4644  -27.1629   12.3019 C.ar    1  UNL1        0.0058
      8 C          21.6822  -26.7272   13.3750 C.ar    1  UNL1        0.0549
      9 C          20.7486  -27.5925   13.9519 C.ar    1  UNL1        0.0058
     10 C          20.6019  -28.8704   13.4615 C.ar    1  UNL1        0.0148
     11 C          21.8713  -31.6222   12.4916 C.2     1  UNL1        0.2492
     12 O          22.5085  -31.4347   13.5096 O.2     1  UNL1       -0.2698
     13 N          21.2309  -30.5951   11.8986 N.am    1  UNL1       -0.2804
     14 H          20.6563  -30.7591   11.1162 H       1  UNL1        0.1552
     15 C          23.9706  -32.5262   10.7175 C.3     1  UNL1        0.0312
     16 C          22.8054  -33.4236   11.0469 C.ar    1  UNL1       -0.0175
     17 C          22.7319  -34.6890   10.5021 C.ar    1  UNL1       -0.0041
     18 C          21.6635  -35.5144   10.8041 C.ar    1  UNL1       -0.0003
     19 C          20.6621  -35.0775   11.6536 C.ar    1  UNL1        0.0001
     20 C          20.7257  -33.8164   12.2085 C.ar    1  UNL1        0.0042
     21 C          21.7987  -32.9765   11.9040 C.ar    1  UNL1        0.0497
     22 N          22.2188  -23.0323   13.5467 N.am    1  UNL1       -0.2300
     23 C          21.4338  -22.0387   13.0850 C.2     1  UNL1        0.2643
     24 O          20.5938  -22.2718   12.2374 O.2     1  UNL1       -0.2685
     25 H          22.8990  -22.8437   14.2331 H       1  UNL1        0.1731
     26 C          21.5938  -20.6686   13.6081 C.ar    1  UNL1        0.0887
     27 C          21.6135  -19.5801   12.7324 C.ar    1  UNL1        0.0076
     28 C          21.7573  -18.3024   13.2277 C.ar    1  UNL1        0.0003
     29 C          21.8943  -18.0922   14.5903 C.ar    1  UNL1        0.0031
     30 C          21.8823  -19.1593   15.4662 C.ar    1  UNL1        0.0371
     31 C          21.7325  -20.4518   14.9856 C.ar    1  UNL1        0.1431
     32 O          21.7210  -21.5013   15.8450 O.3     1  UNL1       -0.4713
     33 C          20.6297  -21.5747   16.7646 C.3     1  UNL1        0.2525
     34 C          19.9336  -22.9297   16.6228 C.3     1  UNL1        0.2525
     35 O          19.1373  -22.9343   15.4362 O.3     1  UNL1       -0.4714
     36 C          18.4955  -24.0920   15.1283 C.ar    1  UNL1        0.1387
     37 C          18.3242  -24.4599   13.8017 C.ar    1  UNL1        0.0369
     38 C          17.6768  -25.6402   13.4915 C.ar    1  UNL1        0.0031
     39 C          17.1888  -26.4485   14.5016 C.ar    1  UNL1        0.0002
     40 C          17.3532  -26.0812   15.8244 C.ar    1  UNL1        0.0031
     41 C          18.0052  -24.9049   16.1400 C.ar    1  UNL1        0.0369
@<TRIPOS>BOND
     1    15    16    1
     2    16    21   ar
     3    16    17   ar
     4    17    18   ar
     5    18    19   ar
     6    19    20   ar
     7    20    21   ar
     8    21    11    1
     9    11    12    2
    10    11    13   am
    11    13     5    1
    12     5    10   ar
    13     5     6   ar
    14     6     7   ar
    15     7     8   ar
    16     8     9   ar
    17     8     1    1
    18     9    10   ar
    19     1     2    2
    20     1     3   am
    21     3    22    1
    22    22    23   am
    23    23    24    2
    24    23    26    1
    25    26    31   ar
    26    26    27   ar
    27    27    28   ar
    28    28    29   ar
    29    29    30   ar
    30    30    31   ar
    31    31    32    1
    32    32    33    1
    33    33    34    1
    34    34    35    1
    35    35    36    1
    36    36    41   ar
    37    36    37   ar
    38    37    38   ar
    39    38    39   ar
    40    39    40   ar
    41    40    41   ar
    42    13    14    1
    43     3     4    1
    44    22    25    1
#	Name:			ZINC14041889
#	Creating user name:	trannguyen
#	Creation time:		Wed Dec  7 14:36:19 2022


#	Modifying user name:	trannguyen
#	Modification time:	Wed Dec  7 14:36:19 2022

@<TRIPOS>MOLECULE
ZINC14041889
 39 41 0 0 0
SMALL
GASTEIGER

@<TRIPOS>ATOM
      1 C          21.9619  -20.2194   15.2119 C.2     1  UNL1        0.1533
      2 S          21.6733  -18.7805   14.3304 S.2     1  UNL1       -0.0170
      3 N          22.6983  -21.2077   14.6665 N.am    1  UNL1       -0.2626
      4 C          22.0889  -22.2666   14.0974 C.2     1  UNL1        0.2508
      5 O          20.8753  -22.3305   14.0762 O.2     1  UNL1       -0.2698
      6 H          23.6812  -21.1560   14.6838 H       1  UNL1        0.1569
      7 C          22.8950  -23.3483   13.5004 C.ar    1  UNL1        0.0539
      8 C          23.9754  -23.0401   12.6687 C.ar    1  UNL1        0.0076
      9 C          24.7291  -24.0526   12.1190 C.ar    1  UNL1        0.0370
     10 C          24.4092  -25.3802   12.3795 C.ar    1  UNL1        0.1386
     11 C          23.3318  -25.6910   13.2010 C.ar    1  UNL1        0.0370
     12 C          22.5770  -24.6844   13.7602 C.ar    1  UNL1        0.0076
     13 O          25.1509  -26.3752   11.8307 O.3     1  UNL1       -0.4751
     14 C          25.5066  -26.2354   10.4537 C.3     1  UNL1        0.2101
     15 C          24.3535  -26.7274    9.5766 C.3     1  UNL1        0.0736
     16 C          23.9371  -28.1058   10.0211 C.ar    1  UNL1       -0.0184
     17 C          22.6893  -28.3035   10.5822 C.ar    1  UNL1       -0.0041
     18 C          22.3054  -29.5687   10.9855 C.ar    1  UNL1       -0.0003
     19 C          23.1731  -30.6345   10.8369 C.ar    1  UNL1       -0.0000
     20 C          24.4231  -30.4358   10.2811 C.ar    1  UNL1       -0.0003
     21 C          24.8050  -29.1715    9.8730 C.ar    1  UNL1       -0.0041
     22 N          21.4526  -20.3640   16.4514 N.am    1  UNL1       -0.2453
     23 H          21.1511  -19.5736   16.9550 H       1  UNL1        0.1718
     24 C          20.1735  -22.0640   17.5198 C.2     1  UNL1        0.2615
     25 O          19.1973  -21.3407   17.4716 O.2     1  UNL1       -0.2686
     26 N          21.3522  -21.6391   17.0231 N.am    1  UNL1       -0.2311
     27 H          22.1426  -22.2248   17.0621 H       1  UNL1        0.1731
     28 C          20.8316  -25.6837   18.2817 C.ar    1  UNL1        0.1756
     29 C          20.9324  -24.4266   17.7157 C.ar    1  UNL1        0.0448
     30 C          20.0677  -23.4074   18.1222 C.ar    1  UNL1        0.0610
     31 C          19.1066  -23.6603   19.1040 C.ar    1  UNL1        0.0448
     32 C          19.0060  -24.9207   19.6628 C.ar    1  UNL1        0.1756
     33 C          19.8694  -25.9346   19.2562 C.ar    1  UNL1        0.2061
     34 C          21.3034  -27.4150   16.7207 C.3     1  UNL1        0.2526
     35 O          21.6734  -26.6762   17.8867 O.3     1  UNL1       -0.4683
     36 O          19.7722  -27.1712   19.8111 O.3     1  UNL1       -0.4654
     37 C          18.7544  -28.0339   19.2991 C.3     1  UNL1        0.2528
     38 O          18.0669  -25.1689   20.6146 O.3     1  UNL1       -0.4683
     39 C          16.8135  -24.4959   20.4805 C.3     1  UNL1        0.2526
@<TRIPOS>BOND
     1    34    35    1
     2    35    28    1
     3    28    33   ar
     4    28    29   ar
     5    29    30   ar
     6    30    31   ar
     7    30    24    1
     8    31    32   ar
     9    32    33   ar
    10    32    38    1
    11    33    36    1
    12    36    37    1
    13    38    39    1
    14    24    25    2
    15    24    26   am
    16    26    22    1
    17    22     1    1
    18     1     2    2
    19     1     3    1
    20     3     4   am
    21     4     5    2
    22     4     7    1
    23     7    12   ar
    24     7     8   ar
    25     8     9   ar
    26     9    10   ar
    27    10    11   ar
    28    10    13    1
    29    11    12   ar
    30    13    14    1
    31    14    15    1
    32    15    16    1
    33    16    21   ar
    34    16    17   ar
    35    17    18   ar
    36    18    19   ar
    37    19    20   ar
    38    20    21   ar
    39    26    27    1
    40    22    23    1
    41     3     6    1
#	Name:			ZINC14157902
#	Creating user name:	trannguyen
#	Creation time:		Wed Dec  7 14:36:19 2022


#	Modifying user name:	trannguyen
#	Modification time:	Wed Dec  7 14:36:19 2022

@<TRIPOS>MOLECULE
ZINC14157902
 41 43 0 0 0
SMALL
GASTEIGER

@<TRIPOS>ATOM
      1 N          20.5305  -26.4560   14.6919 N.am    1  UNL1       -0.1880
      2 C          21.4259  -25.6993   14.0810 C.2     1  UNL1        0.3512
      3 H          19.6016  -26.4795   14.3667 H       1  UNL1        0.2531
      4 C          20.8875  -27.1917   15.7543 C.2     1  UNL1        0.2011
      5 S          21.0470  -28.8897   15.6053 S.2     1  UNL1       -0.0001
      6 N          21.1208  -26.5944   16.9398 N.am    1  UNL1       -0.2829
      7 H          22.0212  -26.6237   17.3370 H       1  UNL1        0.1552
      8 C          16.9153  -23.9116   19.6401 C.3     1  UNL1        0.0307
      9 C          18.0326  -24.6245   18.9229 C.ar    1  UNL1       -0.0257
     10 C          19.3326  -24.1685   19.0451 C.ar    1  UNL1       -0.0033
     11 C          20.3579  -24.8160   18.3847 C.ar    1  UNL1        0.0143
     12 C          20.0841  -25.9332   17.6057 C.ar    1  UNL1        0.0502
     13 C          18.7777  -26.3885   17.4852 C.ar    1  UNL1        0.0101
     14 C          17.7558  -25.7328   18.1440 C.ar    1  UNL1       -0.0246
     15 C          16.3379  -26.2262   18.0138 C.3     1  UNL1        0.0307
     16 N          21.0316  -24.5659   13.4303 N.pl3   1  UNL1       -0.2655
     17 H          21.6918  -24.0258   12.9385 H       1  UNL1        0.2585
     18 C          19.6263  -24.1534   13.4636 C.3     1  UNL1        0.1783
     19 C          19.2818  -23.6284   14.8588 C.3     1  UNL1        0.0691
     20 C          19.8704  -22.2527   15.0374 C.ar    1  UNL1       -0.0186
     21 C          20.1212  -21.7677   16.3073 C.ar    1  UNL1       -0.0028
     22 C          20.6653  -20.5074   16.4710 C.ar    1  UNL1        0.0196
     23 C          20.9500  -19.7286   15.3649 C.ar    1  UNL1        0.1217
     24 C          20.6943  -20.2115   14.0952 C.ar    1  UNL1        0.0196
     25 C          20.1543  -21.4735   13.9315 C.ar    1  UNL1       -0.0028
     26 S          21.6392  -18.1205   15.5737 S.O2    1  UNL1        0.0572
     27 O          20.5754  -17.2730   15.9849 O.2     1  UNL1       -0.1532
     28 O          22.8239  -18.2830   16.3414 O.2     1  UNL1       -0.1532
     29 N          22.1134  -17.5929   14.0774 N.3     1  UNL1       -0.2035
     30 H          21.2920  -17.4612   13.4872 H       1  UNL1        0.1442
     31 H          22.7300  -18.2855   13.6524 H       1  UNL1        0.1442
     32 N          22.7483  -26.0523   14.1009 N.pl3   1  UNL1       -0.2151
     33 H          23.1280  -26.4941   14.8945 H       1  UNL1        0.2676
     34 C          23.5542  -25.7874   13.0017 C.ar    1  UNL1        0.2923
     35 N          24.0865  -24.5824   12.8662 N.ar    1  UNL1       -0.2019
     36 C          24.8626  -24.2980   11.8335 C.ar    1  UNL1        0.0649
     37 C          25.1071  -25.2762   10.8823 C.ar    1  UNL1        0.0297
     38 C          24.5298  -26.5248   11.0526 C.ar    1  UNL1        0.0649
     39 N          23.7678  -26.7441   12.1113 N.ar    1  UNL1       -0.2019
     40 C          24.7680  -27.6192   10.0444 C.3     1  UNL1        0.0523
     41 C          25.4691  -22.9260   11.6901 C.3     1  UNL1        0.0523
@<TRIPOS>UNITY_ATOM_ATTR
1 1
charge 1
@<TRIPOS>BOND
     1     8     9    1
     2     9    14   ar
     3     9    10   ar
     4    10    11   ar
     5    11    12   ar
     6    12    13   ar
     7    12     6    1
     8    13    14   ar
     9    14    15    1
    10     6     4    1
    11     4     5    2
    12     4     1    1
    13     1     2    2
    14     2    16    1
    15     2    32    1
    16    16    18    1
    17    18    19    1
    18    19    20    1
    19    20    25   ar
    20    20    21   ar
    21    21    22   ar
    22    22    23   ar
    23    23    24   ar
    24    23    26    1
    25    24    25   ar
    26    26    27    2
    27    26    28    2
    28    26    29    1
    29    32    34    1
    30    34    39   ar
    31    34    35   ar
    32    35    36   ar
    33    36    37   ar
    34    36    41    1
    35    37    38   ar
    36    38    39   ar
    37    38    40    1
    38     6     7    1
    39     1     3    1
    40    16    17    1
    41    29    30    1
    42    29    31    1
    43    32    33    1
#	Name:			ZINC14158209
#	Creating user name:	trannguyen
#	Creation time:		Wed Dec  7 14:36:20 2022


#	Modifying user name:	trannguyen
#	Modification time:	Wed Dec  7 14:36:20 2022

@<TRIPOS>MOLECULE
ZINC14158209
 41 44 0 0 0
SMALL
GASTEIGER

@<TRIPOS>ATOM
      1 C          21.0103  -23.5302   13.1662 C.2     1  UNL1        0.3513
      2 N          20.0329  -24.4021   12.9881 N.am    1  UNL1       -0.1880
      3 H          20.2249  -25.3675   13.0072 H       1  UNL1        0.2531
      4 N          20.7266  -22.1945   13.2639 N.pl3   1  UNL1       -0.2151
      5 H          20.4697  -21.6857   12.4612 H       1  UNL1        0.2676
      6 C          21.9565  -18.3037   15.7815 C.3     1  UNL1        0.0523
      7 C          21.3863  -19.6972   15.7169 C.ar    1  UNL1        0.0649
      8 C          20.9447  -20.3288   16.8691 C.ar    1  UNL1        0.0297
      9 C          20.4272  -21.6105   16.7650 C.ar    1  UNL1        0.0649
     10 N          20.3706  -22.1887   15.5767 N.ar    1  UNL1       -0.2019
     11 C          20.8011  -21.5573   14.4952 C.ar    1  UNL1        0.2923
     12 N          21.3060  -20.3348   14.5607 N.ar    1  UNL1       -0.2019
     13 C          19.9346  -22.3359   17.9905 C.3     1  UNL1        0.0523
     14 C          18.7800  -23.9718   12.7814 C.2     1  UNL1        0.2011
     15 S          18.1458  -23.9140   11.1923 S.2     1  UNL1       -0.0001
     16 N          18.0197  -23.5846   13.8248 N.am    1  UNL1       -0.2828
     17 H          18.1850  -22.7166   14.2590 H       1  UNL1        0.1552
     18 C          16.9947  -24.4170   14.2913 C.ar    1  UNL1        0.0507
     19 C          15.6739  -23.9925   14.2314 C.ar    1  UNL1        0.0178
     20 C          14.6632  -24.8159   14.6868 C.ar    1  UNL1        0.0388
     21 C          14.9681  -26.0625   15.2140 C.ar    1  UNL1        0.1454
     22 C          16.2881  -26.4849   15.2794 C.ar    1  UNL1        0.0388
     23 C          17.2992  -25.6648   14.8192 C.ar    1  UNL1        0.0178
     24 O          13.9730  -26.8708   15.6665 O.3     1  UNL1       -0.4535
     25 C          13.0745  -27.3433   14.7632 C.ar    1  UNL1        0.1453
     26 C          11.7579  -26.9068   14.7988 C.ar    1  UNL1        0.0375
     27 C          10.8477  -27.3851   13.8764 C.ar    1  UNL1        0.0031
     28 C          11.2452  -28.3062   12.9248 C.ar    1  UNL1        0.0002
     29 C          12.5553  -28.7468   12.8903 C.ar    1  UNL1        0.0031
     30 C          13.4707  -28.2677   13.8071 C.ar    1  UNL1        0.0375
     31 N          22.3025  -23.9616   13.2527 N.pl3   1  UNL1       -0.2605
     32 H          23.0433  -23.3258   13.1251 H       1  UNL1        0.2587
     33 C          22.5870  -25.3706   13.5355 C.3     1  UNL1        0.2350
     34 C          23.7902  -25.8244   12.7064 C.3     1  UNL1        0.1491
     35 C          23.9633  -27.2113   10.7281 C.3     1  UNL1        0.1382
     36 C          23.6789  -28.6093   10.1726 C.3     1  UNL1        0.2029
     37 O          22.2792  -28.8832   10.2787 O.3     1  UNL1       -0.3412
     38 C          21.7796  -28.8175   11.6172 C.3     1  UNL1        0.2029
     39 C          22.0448  -27.4217   12.1873 C.3     1  UNL1        0.1382
     40 N          23.4975  -27.1544   12.1295 N.4     1  UNL1        0.2824
     41 H          23.9884  -27.8651   12.6719 H       1  UNL1        0.2070
@<TRIPOS>UNITY_ATOM_ATTR
2 1
charge 1
40 1
charge 1
@<TRIPOS>BOND
     1     6     7    1
     2     7    12   ar
     3     7     8   ar
     4     8     9   ar
     5     9    10   ar
     6     9    13    1
     7    10    11   ar
     8    11    12   ar
     9    11     4    1
    10     4     1    1
    11     1     2    2
    12     1    31    1
    13     2    14    1
    14    14    15    2
    15    14    16    1
    16    16    18    1
    17    18    23   ar
    18    18    19   ar
    19    19    20   ar
    20    20    21   ar
    21    21    22   ar
    22    21    24    1
    23    22    23   ar
    24    24    25    1
    25    25    30   ar
    26    25    26   ar
    27    26    27   ar
    28    27    28   ar
    29    28    29   ar
    30    29    30   ar
    31    31    33    1
    32    33    34    1
    33    34    40    1
    34    35    36    1
    35    35    40    1
    36    36    37    1
    37    37    38    1
    38    38    39    1
    39    39    40    1
    40     4     5    1
    41     2     3    1
    42    16    17    1
    43    31    32    1
    44    40    41    1
#	Name:			ZINC14159094
#	Creating user name:	trannguyen
#	Creation time:		Wed Dec  7 14:36:20 2022


#	Modifying user name:	trannguyen
#	Modification time:	Wed Dec  7 14:36:20 2022

@<TRIPOS>MOLECULE
ZINC14159094
 39 42 0 0 0
SMALL
GASTEIGER

@<TRIPOS>ATOM
      1 N          21.1094  -24.5699   13.2543 N.am    1  UNL1       -0.1877
      2 C          20.9276  -25.8392   12.9334 C.2     1  UNL1        0.3554
      3 H          20.4583  -23.8907   12.9641 H       1  UNL1        0.2531
      4 C          22.1802  -24.2074   13.9748 C.2     1  UNL1        0.2011
      5 S          23.7015  -24.0194   13.2123 S.2     1  UNL1       -0.0001
      6 N          22.0592  -23.9909   15.2996 N.am    1  UNL1       -0.2829
      7 H          22.3914  -24.6607   15.9402 H       1  UNL1        0.1552
      8 C          19.6355  -19.2212   17.1842 C.3     1  UNL1        0.0307
      9 C          20.2793  -20.4884   16.6834 C.ar    1  UNL1       -0.0257
     10 C          19.9886  -21.6967   17.2905 C.ar    1  UNL1       -0.0033
     11 C          20.5812  -22.8588   16.8378 C.ar    1  UNL1        0.0143
     12 C          21.4618  -22.8150   15.7642 C.ar    1  UNL1        0.0502
     13 C          21.7516  -21.6003   15.1569 C.ar    1  UNL1        0.0101
     14 C          21.1597  -20.4405   15.6184 C.ar    1  UNL1       -0.0246
     15 C          21.4735  -19.1218   14.9599 C.3     1  UNL1        0.0307
     16 N          21.8610  -26.7734   13.2850 N.pl3   1  UNL1       -0.2460
     17 H          22.2085  -26.7998   14.2057 H       1  UNL1        0.2646
     18 C          22.3227  -27.6921   12.3368 C.ar    1  UNL1        0.1165
     19 C          23.3687  -27.3510   11.4891 C.ar    1  UNL1        0.0331
     20 C          23.8260  -28.2625   10.5577 C.ar    1  UNL1        0.0006
     21 C          23.2357  -29.5092   10.4606 C.ar    1  UNL1        0.0023
     22 C          22.1903  -29.8499   11.2992 C.ar    1  UNL1        0.0006
     23 C          21.7323  -28.9453   12.2369 C.ar    1  UNL1        0.0331
     24 C          23.7332  -30.4991    9.4389 C.3     1  UNL1        0.1556
     25 N          24.4865  -31.5595   10.1128 N.ar    1  UNL1       -0.2255
     26 C          24.1780  -32.8673   10.1512 C.ar    1  UNL1        0.1975
     27 N          25.0980  -33.4811   10.8502 N.ar    1  UNL1       -0.2007
     28 C          26.0061  -32.6024   11.2726 C.ar    1  UNL1        0.2210
     29 N          25.6779  -31.4127   10.8418 N.ar    1  UNL1       -0.1448
     30 N          19.8039  -26.2181   12.2487 N.pl3   1  UNL1       -0.2148
     31 H          19.8744  -26.8536   11.5001 H       1  UNL1        0.2676
     32 C          18.5652  -25.7062   12.6103 C.ar    1  UNL1        0.2923
     33 N          17.8567  -25.0353   11.7148 N.ar    1  UNL1       -0.2019
     34 C          16.6708  -24.5386   12.0251 C.ar    1  UNL1        0.0649
     35 C          16.1771  -24.7182   13.3078 C.ar    1  UNL1        0.0297
     36 C          16.9473  -25.4209   14.2214 C.ar    1  UNL1        0.0649
     37 N          18.1228  -25.8956   13.8441 N.ar    1  UNL1       -0.2019
     38 C          16.4512  -25.6414   15.6273 C.3     1  UNL1        0.0523
     39 C          15.8684  -23.7818   10.9981 C.3     1  UNL1        0.0523
@<TRIPOS>UNITY_ATOM_ATTR
1 1
charge 1
@<TRIPOS>BOND
     1     8     9    1
     2     9    14   ar
     3     9    10   ar
     4    10    11   ar
     5    11    12   ar
     6    12    13   ar
     7    12     6    1
     8    13    14   ar
     9    14    15    1
    10     6     4    1
    11     4     5    2
    12     4     1    1
    13     1     2    2
    14     2    16    1
    15     2    30    1
    16    16    18    1
    17    18    23   ar
    18    18    19   ar
    19    19    20   ar
    20    20    21   ar
    21    21    22   ar
    22    21    24    1
    23    22    23   ar
    24    24    25    1
    25    25    29   ar
    26    25    26   ar
    27    26    27   ar
    28    27    28   ar
    29    28    29   ar
    30    30    32    1
    31    32    37   ar
    32    32    33   ar
    33    33    34   ar
    34    34    35   ar
    35    34    39    1
    36    35    36   ar
    37    36    37   ar
    38    36    38    1
    39     6     7    1
    40     1     3    1
    41    16    17    1
    42    30    31    1
#	Name:			ZINC14159107
#	Creating user name:	trannguyen
#	Creation time:		Wed Dec  7 14:36:20 2022


#	Modifying user name:	trannguyen
#	Modification time:	Wed Dec  7 14:36:20 2022

@<TRIPOS>MOLECULE
ZINC14159107
 41 44 0 0 0
SMALL
GASTEIGER

@<TRIPOS>ATOM
      1 C          20.8369  -25.3223   13.1377 C.2     1  UNL1        0.3554
      2 N          20.9723  -24.0206   13.3227 N.am    1  UNL1       -0.1877
      3 H          20.2622  -23.4052   13.0288 H       1  UNL1        0.2531
      4 N          19.7104  -25.8147   12.5349 N.pl3   1  UNL1       -0.2148
      5 H          19.7795  -26.2889   11.6749 H       1  UNL1        0.2676
      6 C          15.7659  -23.1440   13.0798 C.3     1  UNL1        0.0523
      7 C          16.5719  -24.3742   13.4085 C.ar    1  UNL1        0.0649
      8 C          16.0810  -25.3178   14.2973 C.ar    1  UNL1        0.0297
      9 C          16.8547  -26.4346   14.5717 C.ar    1  UNL1        0.0649
     10 N          18.0310  -26.5656   13.9810 N.ar    1  UNL1       -0.2019
     11 C          18.4707  -25.6451   13.1365 C.ar    1  UNL1        0.2923
     12 N          17.7588  -24.5642   12.8563 N.ar    1  UNL1       -0.2019
     13 C          16.3616  -27.4871   15.5311 C.3     1  UNL1        0.0523
     14 C          22.0765  -23.5382   13.9107 C.2     1  UNL1        0.2012
     15 S          23.4049  -23.0351   12.9551 S.2     1  UNL1       -0.0001
     16 N          22.1408  -23.4494   15.2540 N.am    1  UNL1       -0.2804
     17 H          22.7114  -24.0707   15.7617 H       1  UNL1        0.1553
     18 C          21.3960  -22.4734   15.9277 C.ar    1  UNL1        0.0880
     19 C          21.3785  -21.1674   15.4608 C.ar    1  UNL1        0.0546
     20 C          20.6407  -20.2033   16.1300 C.ar    1  UNL1        0.1402
     21 C          19.9163  -20.5452   17.2626 C.ar    1  UNL1        0.0401
     22 C          19.9362  -21.8450   17.7330 C.ar    1  UNL1        0.0413
     23 C          20.6717  -22.8123   17.0683 C.ar    1  UNL1        0.1522
     24 O          20.6864  -24.0925   17.5288 O.3     1  UNL1       -0.4702
     25 C          21.2956  -24.3172   18.8018 C.3     1  UNL1        0.2525
     26 O          20.6225  -18.9229   15.6729 O.3     1  UNL1       -0.4714
     27 C          21.7758  -18.1224   15.9395 C.3     1  UNL1        0.2525
     28 N          21.8213  -26.1769   13.5484 N.pl3   1  UNL1       -0.2460
     29 H          22.0792  -26.2108   14.4978 H       1  UNL1        0.2646
     30 C          22.4622  -27.0033   12.6197 C.ar    1  UNL1        0.1165
     31 C          21.9760  -28.2806   12.3726 C.ar    1  UNL1        0.0331
     32 C          22.6084  -29.0923   11.4514 C.ar    1  UNL1        0.0006
     33 C          23.7307  -28.6385   10.7830 C.ar    1  UNL1        0.0023
     34 C          24.2204  -27.3692   11.0305 C.ar    1  UNL1        0.0006
     35 C          23.5897  -26.5505   11.9467 C.ar    1  UNL1        0.0331
     36 C          24.4212  -29.5289    9.7824 C.3     1  UNL1        0.1556
     37 N          25.5238  -30.2367   10.4378 N.ar    1  UNL1       -0.2255
     38 C          26.7261  -29.7306   10.7628 C.ar    1  UNL1        0.1975
     39 N          27.4255  -30.6787   11.3316 N.ar    1  UNL1       -0.2007
     40 C          26.7066  -31.7992   11.3872 C.ar    1  UNL1        0.2210
     41 N          25.5327  -31.5770   10.8570 N.ar    1  UNL1       -0.1448
@<TRIPOS>UNITY_ATOM_ATTR
2 1
charge 1
@<TRIPOS>BOND
     1     6     7    1
     2     7    12   ar
     3     7     8   ar
     4     8     9   ar
     5     9    10   ar
     6     9    13    1
     7    10    11   ar
     8    11    12   ar
     9    11     4    1
    10     4     1    1
    11     1     2    2
    12     1    28    1
    13     2    14    1
    14    14    15    2
    15    14    16    1
    16    16    18    1
    17    18    23   ar
    18    18    19   ar
    19    19    20   ar
    20    20    21   ar
    21    20    26    1
    22    21    22   ar
    23    22    23   ar
    24    23    24    1
    25    24    25    1
    26    26    27    1
    27    28    30    1
    28    30    35   ar
    29    30    31   ar
    30    31    32   ar
    31    32    33   ar
    32    33    34   ar
    33    33    36    1
    34    34    35   ar
    35    36    37    1
    36    37    41   ar
    37    37    38   ar
    38    38    39   ar
    39    39    40   ar
    40    40    41   ar
    41     4     5    1
    42     2     3    1
    43    16    17    1
    44    28    29    1
#	Name:			ZINC14410576
#	Creating user name:	trannguyen
#	Creation time:		Wed Dec  7 14:36:20 2022


#	Modifying user name:	trannguyen
#	Modification time:	Wed Dec  7 14:36:20 2022

@<TRIPOS>MOLECULE
ZINC14410576
 40 43 0 0 0
SMALL
GASTEIGER

@<TRIPOS>ATOM
      1 C          20.3454  -22.8350   13.4648 C.ar    1  UNL1        0.2248
      2 N          21.3911  -23.6559   13.4751 N.ar    1  UNL1       -0.1805
      3 C          22.4481  -23.3771   14.2318 C.ar    1  UNL1        0.2248
      4 N          22.4598  -22.2773   14.9780 N.ar    1  UNL1       -0.1884
      5 C          21.4138  -21.4558   14.9680 C.ar    1  UNL1        0.1954
      6 N          20.3541  -21.7380   14.2153 N.ar    1  UNL1       -0.1884
      7 N          19.2472  -23.1250   12.6782 N.pl3   1  UNL1       -0.2824
      8 H          19.2944  -23.0030   11.7026 H       1  UNL1        0.1551
      9 C          14.4661  -25.0195   15.0716 C.3     1  UNL1        0.0310
     10 C          15.7364  -24.5161   14.4359 C.ar    1  UNL1       -0.0218
     11 C          16.9549  -25.0520   14.8105 C.ar    1  UNL1       -0.0030
     12 C          18.1208  -24.5929   14.2299 C.ar    1  UNL1        0.0144
     13 C          18.0685  -23.5921   13.2682 C.ar    1  UNL1        0.0504
     14 C          16.8435  -23.0524   12.8979 C.ar    1  UNL1        0.0144
     15 C          15.6809  -23.5196   13.4787 C.ar    1  UNL1       -0.0030
     16 N          23.5346  -24.2305   14.2422 N.pl3   1  UNL1       -0.2824
     17 H          23.9713  -24.4612   15.0938 H       1  UNL1        0.1551
     18 C          24.0139  -24.7666   13.0429 C.ar    1  UNL1        0.0504
     19 C          24.7172  -23.9641   12.1537 C.ar    1  UNL1        0.0144
     20 C          25.1938  -24.4981   10.9725 C.ar    1  UNL1       -0.0030
     21 C          24.9618  -25.8272   10.6696 C.ar    1  UNL1       -0.0218
     22 C          24.2574  -26.6276   11.5502 C.ar    1  UNL1       -0.0030
     23 C          23.7827  -26.1012   12.7355 C.ar    1  UNL1        0.0144
     24 C          25.4784  -26.4049    9.3771 C.3     1  UNL1        0.0310
     25 S          21.4291  -19.9976   15.9570 S.3     1  UNL1       -0.0657
     26 C          20.0304  -20.3457   17.0518 C.3     1  UNL1        0.1501
     27 C          20.1497  -21.7489   17.5885 C.2     1  UNL1        0.2376
     28 O          21.0080  -22.0157   18.4030 O.2     1  UNL1       -0.2738
     29 N          19.3028  -22.7073   17.1634 N.am    1  UNL1       -0.2807
     30 H          18.5580  -22.4750   16.5629 H       1  UNL1        0.1550
     31 C          19.4824  -24.0342   17.5759 C.ar    1  UNL1        0.0878
     32 C          20.5049  -24.7981   17.0331 C.ar    1  UNL1        0.0546
     33 C          20.6832  -26.1092   17.4467 C.ar    1  UNL1        0.1402
     34 C          19.8333  -26.6603   18.3946 C.ar    1  UNL1        0.0401
     35 C          18.8102  -25.9026   18.9332 C.ar    1  UNL1        0.0413
     36 C          18.6308  -24.5903   18.5274 C.ar    1  UNL1        0.1522
     37 O          17.6239  -23.8452   19.0582 O.3     1  UNL1       -0.4702
     38 C          17.0336  -24.3212   20.2694 C.3     1  UNL1        0.2525
     39 O          21.6883  -26.8574   16.9187 O.3     1  UNL1       -0.4714
     40 C          22.0734  -28.0287   17.6410 C.3     1  UNL1        0.2525
@<TRIPOS>BOND
     1     9    10    1
     2    10    15   ar
     3    10    11   ar
     4    11    12   ar
     5    12    13   ar
     6    13    14   ar
     7    13     7    1
     8    14    15   ar
     9     7     1    1
    10     1     6   ar
    11     1     2   ar
    12     2     3   ar
    13     3     4   ar
    14     3    16    1
    15     4     5   ar
    16     5     6   ar
    17     5    25    1
    18    25    26    1
    19    26    27    1
    20    27    28    2
    21    27    29   am
    22    29    31    1
    23    31    36   ar
    24    31    32   ar
    25    32    33   ar
    26    33    34   ar
    27    33    39    1
    28    34    35   ar
    29    35    36   ar
    30    36    37    1
    31    37    38    1
    32    39    40    1
    33    16    18    1
    34    18    23   ar
    35    18    19   ar
    36    19    20   ar
    37    20    21   ar
    38    21    22   ar
    39    21    24    1
    40    22    23   ar
    41     7     8    1
    42    29    30    1
    43    16    17    1
#	Name:			ZINC14442081
#	Creating user name:	trannguyen
#	Creation time:		Wed Dec  7 14:36:20 2022


#	Modifying user name:	trannguyen
#	Modification time:	Wed Dec  7 14:36:20 2022

@<TRIPOS>MOLECULE
ZINC14442081
 38 41 0 0 0
SMALL
GASTEIGER

@<TRIPOS>ATOM
      1 C          19.8631  -22.8900   15.3372 C.3     1  UNL1        0.1504
      2 C          20.3825  -21.5233   15.7021 C.ar    1  UNL1       -0.0035
      3 C          21.3242  -20.9051   14.9007 C.ar    1  UNL1       -0.0030
      4 C          21.7974  -19.6495   15.2330 C.ar    1  UNL1       -0.0003
      5 C          21.3362  -19.0162   16.3719 C.ar    1  UNL1       -0.0000
      6 C          20.3982  -19.6364   17.1758 C.ar    1  UNL1       -0.0003
      7 C          19.9217  -20.8901   16.8412 C.ar    1  UNL1       -0.0030
      8 C          20.5690  -23.9331   16.1646 C.2     1  UNL1        0.2403
      9 O          21.7527  -23.8191   16.4031 O.2     1  UNL1       -0.2735
     10 N          19.8850  -24.9928   16.6397 N.am    1  UNL1       -0.2829
     11 H          18.9413  -25.1215   16.3905 H       1  UNL1        0.1549
     12 C          20.5136  -25.9067   17.4841 C.ar    1  UNL1        0.0503
     13 C          21.0377  -27.0860   16.9633 C.ar    1  UNL1        0.0147
     14 C          21.6634  -27.9883   17.7933 C.ar    1  UNL1        0.0024
     15 C          21.7626  -27.7240   19.1626 C.ar    1  UNL1        0.0141
     16 C          21.2302  -26.5407   19.6831 C.ar    1  UNL1        0.0024
     17 C          20.6106  -25.6403   18.8463 C.ar    1  UNL1        0.0147
     18 C          22.4276  -28.6908   20.0557 C.2     1  UNL1        0.0729
     19 O          23.6404  -28.7206   20.1237 O.co2   1  UNL1       -0.5446
     20 O          21.6902  -29.5413   20.7965 O.co2   1  UNL1       -0.5446
     21 S          20.1710  -23.2039   13.5774 S.3     1  UNL1       -0.1007
     22 C          16.5988  -25.0418   13.3068 C.ar    1  UNL1        0.0508
     23 C          16.1988  -24.7300   12.0129 C.ar    1  UNL1        0.0147
     24 C          17.0054  -23.9487   11.2080 C.ar    1  UNL1        0.0018
     25 C          18.2170  -23.4842   11.6820 C.ar    1  UNL1        0.0063
     26 C          18.6256  -23.7967   12.9733 C.ar    1  UNL1        0.0272
     27 C          17.8142  -24.5770   13.7866 C.ar    1  UNL1        0.0208
     28 C          14.7009  -25.2835   14.7209 C.2     1  UNL1        0.2305
     29 O          14.4887  -24.0936   14.6203 O.2     1  UNL1       -0.2744
     30 N          15.7786  -25.8287   14.1228 N.am    1  UNL1       -0.2836
     31 H          15.9887  -26.7806   14.2601 H       1  UNL1        0.1549
     32 C          13.7596  -26.1523   15.5148 C.3     1  UNL1        0.1116
     33 C          11.2822  -28.3803   12.8415 C.ar    1  UNL1       -0.0000
     34 C          10.7146  -27.4696   13.7129 C.ar    1  UNL1       -0.0003
     35 C          11.5163  -26.7488   14.5782 C.ar    1  UNL1       -0.0038
     36 C          12.8856  -26.9384   14.5717 C.ar    1  UNL1       -0.0131
     37 C          13.4537  -27.8450   13.6964 C.ar    1  UNL1       -0.0038
     38 C          12.6515  -28.5699   12.8350 C.ar    1  UNL1       -0.0003
@<TRIPOS>UNITY_ATOM_ATTR
20 1
charge -1
@<TRIPOS>BOND
     1    33    38   ar
     2    33    34   ar
     3    34    35   ar
     4    35    36   ar
     5    36    37   ar
     6    36    32    1
     7    37    38   ar
     8    32    28    1
     9    28    29    2
    10    28    30   am
    11    30    22    1
    12    22    27   ar
    13    22    23   ar
    14    23    24   ar
    15    24    25   ar
    16    25    26   ar
    17    26    27   ar
    18    26    21    1
    19    21     1    1
    20     1     2    1
    21     1     8    1
    22     2     7   ar
    23     2     3   ar
    24     3     4   ar
    25     4     5   ar
    26     5     6   ar
    27     6     7   ar
    28     8     9    2
    29     8    10   am
    30    10    12    1
    31    12    17   ar
    32    12    13   ar
    33    13    14   ar
    34    14    15   ar
    35    15    16   ar
    36    15    18    1
    37    16    17   ar
    38    18    19   ar
    39    18    20   ar
    40    30    31    1
    41    10    11    1
#	Name:			ZINC14442112
#	Creating user name:	trannguyen
#	Creation time:		Wed Dec  7 14:36:19 2022


#	Modifying user name:	trannguyen
#	Modification time:	Wed Dec  7 14:36:19 2022

@<TRIPOS>MOLECULE
ZINC14442112
 39 42 0 0 0
SMALL
GASTEIGER

@<TRIPOS>ATOM
      1 C          19.6869  -24.9530   16.6067 C.3     1  UNL1        0.1504
      2 C          18.8682  -24.6644   17.8386 C.ar    1  UNL1       -0.0035
      3 C          19.4460  -24.7611   19.0907 C.ar    1  UNL1       -0.0030
      4 C          18.6963  -24.4921   20.2205 C.ar    1  UNL1       -0.0003
      5 C          17.3663  -24.1353   20.0987 C.ar    1  UNL1       -0.0000
      6 C          16.7872  -24.0437   18.8469 C.ar    1  UNL1       -0.0003
      7 C          17.5381  -24.3084   17.7168 C.ar    1  UNL1       -0.0030
      8 N          19.6233  -22.7952   15.3991 N.am    1  UNL1       -0.2832
      9 C          20.3347  -23.6806   16.1246 C.2     1  UNL1        0.2403
     10 O          21.4961  -23.4532   16.3897 O.2     1  UNL1       -0.2735
     11 H          18.6633  -22.9462   15.2418 H       1  UNL1        0.1549
     12 C          20.2125  -22.7680   12.6192 C.3     1  UNL1        0.0323
     13 C          20.5558  -21.6057   13.5149 C.ar    1  UNL1       -0.0084
     14 C          21.1691  -20.4854   12.9852 C.ar    1  UNL1       -0.0030
     15 C          21.4915  -19.4195   13.7998 C.ar    1  UNL1        0.0009
     16 C          21.1931  -19.4677   15.1633 C.ar    1  UNL1        0.0152
     17 C          20.5691  -20.5958   15.6964 C.ar    1  UNL1        0.0155
     18 C          20.2494  -21.6612   14.8692 C.ar    1  UNL1        0.0463
     19 C          21.5375  -18.3280   16.0382 C.2     1  UNL1        0.0729
     20 O          20.6888  -17.8317   16.7514 O.co2   1  UNL1       -0.5446
     21 O          22.7929  -17.8394   16.0450 O.co2   1  UNL1       -0.5446
     22 S          18.6092  -25.6135   15.3056 S.3     1  UNL1       -0.1007
     23 C          19.6465  -26.7265   14.4170 C.ar    1  UNL1        0.0272
     24 C          19.3828  -28.0916   14.4385 C.ar    1  UNL1        0.0063
     25 C          20.1951  -28.9642   13.7413 C.ar    1  UNL1        0.0018
     26 C          21.2721  -28.4841   13.0204 C.ar    1  UNL1        0.0147
     27 C          21.5447  -27.1221   12.9993 C.ar    1  UNL1        0.0508
     28 C          20.7279  -26.2416   13.6939 C.ar    1  UNL1        0.0208
     29 N          22.6388  -26.6380   12.2736 N.am    1  UNL1       -0.2836
     30 C          23.5215  -25.8056   12.8604 C.2     1  UNL1        0.2305
     31 O          23.4286  -25.5599   14.0445 O.2     1  UNL1       -0.2744
     32 H          22.7637  -26.9055   11.3344 H       1  UNL1        0.1549
     33 C          24.6240  -25.1802   12.0453 C.3     1  UNL1        0.1116
     34 C          25.2552  -26.2287   11.1659 C.ar    1  UNL1       -0.0131
     35 C          25.9805  -27.2603   11.7319 C.ar    1  UNL1       -0.0038
     36 C          26.5550  -28.2250   10.9256 C.ar    1  UNL1       -0.0003
     37 C          26.4134  -28.1520    9.5525 C.ar    1  UNL1       -0.0000
     38 C          25.6928  -27.1172    8.9860 C.ar    1  UNL1       -0.0003
     39 C          25.1135  -26.1557    9.7927 C.ar    1  UNL1       -0.0038
@<TRIPOS>UNITY_ATOM_ATTR
21 1
charge -1
@<TRIPOS>BOND
     1    12    13    1
     2    13    18   ar
     3    13    14   ar
     4    14    15   ar
     5    15    16   ar
     6    16    17   ar
     7    16    19    1
     8    17    18   ar
     9    18     8    1
    10     8     9   am
    11     9    10    2
    12     9     1    1
    13     1     2    1
    14     1    22    1
    15     2     7   ar
    16     2     3   ar
    17     3     4   ar
    18     4     5   ar
    19     5     6   ar
    20     6     7   ar
    21    22    23    1
    22    23    28   ar
    23    23    24   ar
    24    24    25   ar
    25    25    26   ar
    26    26    27   ar
    27    27    28   ar
    28    27    29    1
    29    29    30   am
    30    30    31    2
    31    30    33    1
    32    33    34    1
    33    34    39   ar
    34    34    35   ar
    35    35    36   ar
    36    36    37   ar
    37    37    38   ar
    38    38    39   ar
    39    19    20   ar
    40    19    21   ar
    41     8    11    1
    42    29    32    1
#	Name:			ZINC14447974
#	Creating user name:	trannguyen
#	Creation time:		Wed Dec  7 14:36:20 2022


#	Modifying user name:	trannguyen
#	Modification time:	Wed Dec  7 14:36:20 2022

@<TRIPOS>MOLECULE
ZINC14447974
 33 35 0 0 0
SMALL
GASTEIGER

@<TRIPOS>ATOM
      1 S          21.0431  -27.2974   14.4026 S.3     1  UNL1       -0.1052
      2 C          19.9062  -26.0745   13.8398 C.ar    1  UNL1        0.0269
      3 C          18.8331  -26.4396   13.0345 C.ar    1  UNL1        0.0062
      4 C          17.9419  -25.4813   12.5931 C.ar    1  UNL1        0.0018
      5 C          18.1131  -24.1573   12.9503 C.ar    1  UNL1        0.0147
      6 C          19.1831  -23.7855   13.7545 C.ar    1  UNL1        0.0508
      7 C          20.0841  -24.7443   14.1948 C.ar    1  UNL1        0.0208
      8 N          19.3552  -22.4446   14.1153 N.am    1  UNL1       -0.2839
      9 C          20.0845  -21.6245   13.3330 C.2     1  UNL1        0.2256
     10 O          20.5194  -22.0250   12.2739 O.2     1  UNL1       -0.2748
     11 H          18.9436  -22.1002   14.9407 H       1  UNL1        0.1549
     12 C          20.3597  -20.2101   13.7742 C.3     1  UNL1        0.0768
     13 C          21.4999  -19.6274   12.9366 C.3     1  UNL1        0.0091
     14 C          21.7794  -18.1913   13.3846 C.3     1  UNL1        0.0005
     15 C          22.1776  -18.1863   14.8618 C.3     1  UNL1        0.0000
     16 C          21.0375  -18.7690   15.6994 C.3     1  UNL1        0.0005
     17 C          20.7581  -20.2050   15.2514 C.3     1  UNL1        0.0091
     18 C          20.9403  -28.6030   13.1474 C.3     1  UNL1        0.1283
     19 C          22.1622  -28.5506   12.2668 C.2     1  UNL1        0.2362
     20 O          22.9250  -29.4931   12.2315 O.2     1  UNL1       -0.2739
     21 N          22.4074  -27.4568   11.5187 N.am    1  UNL1       -0.2809
     22 H          21.8323  -26.6624   11.6049 H       1  UNL1        0.1550
     23 C          23.4808  -27.4502   10.6180 C.ar    1  UNL1        0.0848
     24 C          23.5085  -28.3499    9.5626 C.ar    1  UNL1        0.0178
     25 C          24.5660  -28.3383    8.6727 C.ar    1  UNL1        0.0015
     26 C          25.6026  -27.4381    8.8373 C.ar    1  UNL1        0.0032
     27 C          25.5844  -26.5420    9.8899 C.ar    1  UNL1        0.0382
     28 C          24.5256  -26.5440   10.7835 C.ar    1  UNL1        0.1519
     29 O          24.5067  -25.6637   11.8197 O.3     1  UNL1       -0.4742
     30 C          25.1321  -24.3967   11.6061 C.3     1  UNL1        0.2056
     31 C          24.3782  -23.3179   12.3864 C.3     1  UNL1        0.0512
     32 C          21.1861  -29.8065   15.3231 C.3     1  UNL1        0.0014
     33 C          20.8657  -29.9674   13.8357 C.3     1  UNL1        0.0204
@<TRIPOS>BOND
     1    32    33    1
     2    33    18    1
     3    18    19    1
     4    18     1    1
     5    19    20    2
     6    19    21   am
     7    21    23    1
     8    23    28   ar
     9    23    24   ar
    10    24    25   ar
    11    25    26   ar
    12    26    27   ar
    13    27    28   ar
    14    28    29    1
    15    29    30    1
    16    30    31    1
    17     1     2    1
    18     2     7   ar
    19     2     3   ar
    20     3     4   ar
    21     4     5   ar
    22     5     6   ar
    23     6     7   ar
    24     6     8    1
    25     8     9   am
    26     9    10    2
    27     9    12    1
    28    12    17    1
    29    12    13    1
    30    13    14    1
    31    14    15    1
    32    15    16    1
    33    16    17    1
    34    21    22    1
    35     8    11    1
#	Name:			ZINC14524883
#	Creating user name:	trannguyen
#	Creation time:		Wed Dec  7 14:36:20 2022


#	Modifying user name:	trannguyen
#	Modification time:	Wed Dec  7 14:36:20 2022

@<TRIPOS>MOLECULE
ZINC14524883
 37 39 0 0 0
SMALL
GASTEIGER

@<TRIPOS>ATOM
      1 N          19.4926  -22.3443   13.6002 N.2     1  UNL1       -0.1846
      2 C          20.0542  -23.5292   13.5461 C.2     1  UNL1        0.3173
      3 N          19.5385  -24.6924   13.0144 N.am    1  UNL1       -0.1906
      4 C          20.2094  -25.8316   13.0212 C.2     1  UNL1        0.2450
      5 O          19.7511  -26.8520   12.5530 O.2     1  UNL1       -0.2734
      6 C          21.5910  -25.7824   13.6533 C.3     1  UNL1        0.1446
      7 S          21.6665  -24.0140   14.1433 S.3     1  UNL1       -0.0200
      8 H          18.5903  -22.2098   13.2301 H       1  UNL1        0.4554
      9 C          21.9417  -18.1353   13.0886 C.3     1  UNL1        0.0312
     10 C          21.3667  -19.2285   13.9518 C.ar    1  UNL1       -0.0160
     11 C          21.5145  -19.1723   15.3266 C.ar    1  UNL1       -0.0039
     12 C          20.9898  -20.1716   16.1265 C.ar    1  UNL1        0.0058
     13 C          20.3145  -21.2318   15.5576 C.ar    1  UNL1        0.0692
     14 C          20.1618  -21.2948   14.1714 C.ar    1  UNL1        0.2248
     15 C          20.6994  -20.2859   13.3694 C.ar    1  UNL1        0.0650
     16 C          21.6748  -26.7000   14.8746 C.3     1  UNL1        0.1059
     17 C          20.6020  -26.3204   15.8627 C.2     1  UNL1        0.2275
     18 O          19.5609  -26.9415   15.8959 O.2     1  UNL1       -0.2747
     19 N          20.7997  -25.2906   16.7095 N.am    1  UNL1       -0.2841
     20 H          21.6089  -24.7356   16.6291 H       1  UNL1        0.1548
     21 C          19.8549  -25.0104   17.7027 C.ar    1  UNL1        0.0462
     22 C          18.6969  -24.3126   17.3847 C.ar    1  UNL1        0.0140
     23 C          17.7661  -24.0381   18.3672 C.ar    1  UNL1       -0.0030
     24 C          17.9860  -24.4572   19.6667 C.ar    1  UNL1       -0.0221
     25 C          19.1377  -25.1521   19.9865 C.ar    1  UNL1       -0.0073
     26 C          20.0727  -25.4299   19.0084 C.ar    1  UNL1       -0.0087
     27 C          21.3275  -26.1879   19.3577 C.3     1  UNL1        0.0323
     28 C          16.9678  -24.1563   20.7362 C.3     1  UNL1        0.0310
     29 C          18.1993  -24.6649   12.4212 C.3     1  UNL1        0.1890
     30 C          17.1647  -24.7759   13.5112 C.2     1  UNL1        0.2434
     31 O          16.4687  -23.8216   13.7863 O.2     1  UNL1       -0.2732
     32 N          17.0127  -25.9359   14.1806 N.am    1  UNL1       -0.3006
     33 H          17.5777  -26.7106   13.9574 H       1  UNL1        0.1496
     34 C          16.0070  -26.0439   15.2402 C.3     1  UNL1        0.1217
     35 C          14.7226  -26.6442   14.6651 C.3     1  UNL1        0.1634
     36 O          13.6896  -25.6569   14.6739 O.3     1  UNL1       -0.3493
     37 C          12.4255  -26.1421   15.1304 C.3     1  UNL1        0.1742
@<TRIPOS>UNITY_ATOM_ATTR
1 1
charge 1
@<TRIPOS>BOND
     1     9    10    1
     2    10    15   ar
     3    10    11   ar
     4    11    12   ar
     5    12    13   ar
     6    13    14   ar
     7    14    15   ar
     8    14     1    1
     9     1     2    2
    10     2     7    1
    11     2     3    1
    12     3     4   am
    13     3    29    1
    14     4     5    2
    15     4     6    1
    16     6     7    1
    17     6    16    1
    18    16    17    1
    19    17    18    2
    20    17    19   am
    21    19    21    1
    22    21    26   ar
    23    21    22   ar
    24    22    23   ar
    25    23    24   ar
    26    24    25   ar
    27    24    28    1
    28    25    26   ar
    29    26    27    1
    30    29    30    1
    31    30    31    2
    32    30    32   am
    33    32    34    1
    34    34    35    1
    35    35    36    1
    36    36    37    1
    37     1     8    1
    38    19    20    1
    39    32    33    1
#	Name:			ZINC14533637
#	Creating user name:	trannguyen
#	Creation time:		Wed Dec  7 14:36:19 2022


#	Modifying user name:	trannguyen
#	Modification time:	Wed Dec  7 14:36:19 2022

@<TRIPOS>MOLECULE
ZINC14533637
 41 44 0 0 0
SMALL
GASTEIGER

@<TRIPOS>ATOM
      1 C          21.0031  -25.5967   13.8595 C.ar    1  UNL1        0.0464
      2 C          19.6171  -25.5633   13.8302 C.ar    1  UNL1        0.0189
      3 C          18.9585  -24.3598   13.5800 C.ar    1  UNL1        0.0559
      4 C          19.6991  -23.1989   13.3498 C.ar    1  UNL1        0.0248
      5 C          21.0779  -23.2436   13.3755 C.ar    1  UNL1        0.1265
      6 C          21.7311  -24.4355   13.6287 C.ar    1  UNL1        0.0345
      7 C          17.4809  -24.3145   13.5531 C.2     1  UNL1        0.2459
      8 O          16.9086  -23.2614   13.3502 O.2     1  UNL1       -0.2701
      9 N          16.7684  -25.4409   13.7535 N.am    1  UNL1       -0.3008
     10 H          17.2318  -26.2938   13.9178 H       1  UNL1        0.1497
     11 C          15.3043  -25.3960   13.7268 C.3     1  UNL1        0.0917
     12 C          14.7504  -26.0693   14.9840 C.3     1  UNL1        0.0458
     13 C          14.4229  -27.5320   14.6772 C.3     1  UNL1        0.1094
     14 N          13.0847  -27.6195   14.0875 N.ar    1  UNL1       -0.3078
     15 C          11.9543  -26.9958   14.5425 C.ar    1  UNL1        0.0980
     16 C          10.9551  -27.3441   13.7095 C.ar    1  UNL1        0.1193
     17 N          11.4596  -28.1656   12.7770 N.ar    1  UNL1       -0.2223
     18 C          12.7347  -28.3351   12.9971 C.ar    1  UNL1        0.1786
     19 S          22.0095  -21.7765   13.0851 S.O2    1  UNL1        0.0736
     20 O          23.1706  -22.1684   12.3656 O.2     1  UNL1       -0.1499
     21 O          21.0967  -20.8073   12.5885 O.2     1  UNL1       -0.1499
     22 N          22.5288  -21.2266   14.5583 N.pl3   1  UNL1       -0.2150
     23 H          23.4698  -21.3427   14.8232 H       1  UNL1        0.1737
     24 C          21.6318  -20.5981   15.4249 C.ar    1  UNL1        0.0648
     25 C          20.8675  -21.3545   16.3044 C.ar    1  UNL1        0.0159
     26 C          19.9850  -20.7295   17.1634 C.ar    1  UNL1        0.0013
     27 C          19.8539  -19.3531   17.1412 C.ar    1  UNL1        0.0001
     28 C          20.6093  -18.5974   16.2632 C.ar    1  UNL1        0.0013
     29 C          21.4975  -19.2157   15.4053 C.ar    1  UNL1        0.0159
     30 N          21.6678  -26.7986   14.1154 N.pl3   1  UNL1       -0.3290
     31 H          22.3201  -26.8535   14.8508 H       1  UNL1        0.1471
     32 C          21.3942  -27.9771   13.2893 C.3     1  UNL1        0.1143
     33 C          24.0259  -28.0000    9.9246 C.ar    1  UNL1       -0.0225
     34 C          24.2562  -27.1329   10.9762 C.ar    1  UNL1       -0.0045
     35 C          23.4045  -27.1254   12.0650 C.ar    1  UNL1       -0.0029
     36 C          22.3225  -27.9849   12.1021 C.ar    1  UNL1       -0.0027
     37 C          22.0917  -28.8515   11.0500 C.ar    1  UNL1       -0.0029
     38 C          22.9431  -28.8586    9.9610 C.ar    1  UNL1       -0.0045
     39 C          24.7766  -26.7128    7.9424 C.3     1  UNL1        0.0047
     40 C          24.9542  -28.0080    8.7374 C.3     1  UNL1        0.0224
     41 C          26.4015  -28.1143    9.2224 C.3     1  UNL1        0.0047
@<TRIPOS>BOND
     1    39    40    1
     2    40    41    1
     3    40    33    1
     4    33    38   ar
     5    33    34   ar
     6    34    35   ar
     7    35    36   ar
     8    36    37   ar
     9    36    32    1
    10    37    38   ar
    11    32    30    1
    12    30     1    1
    13     1     6   ar
    14     1     2   ar
    15     2     3   ar
    16     3     4   ar
    17     3     7    1
    18     4     5   ar
    19     5     6   ar
    20     5    19    1
    21    19    20    2
    22    19    21    2
    23    19    22    1
    24    22    24    1
    25    24    29   ar
    26    24    25   ar
    27    25    26   ar
    28    26    27   ar
    29    27    28   ar
    30    28    29   ar
    31     7     8    2
    32     7     9   am
    33     9    11    1
    34    11    12    1
    35    12    13    1
    36    13    14    1
    37    14    18   ar
    38    14    15   ar
    39    15    16   ar
    40    16    17   ar
    41    17    18   ar
    42    30    31    1
    43    22    23    1
    44     9    10    1
#	Name:			ZINC14569535
#	Creating user name:	trannguyen
#	Creation time:		Wed Dec  7 14:36:19 2022


#	Modifying user name:	trannguyen
#	Modification time:	Wed Dec  7 14:36:19 2022

@<TRIPOS>MOLECULE
ZINC14569535
 42 45 0 0 0
SMALL
GASTEIGER

@<TRIPOS>ATOM
      1 C          20.6292  -19.0845   15.0870 C.3     1  UNL1        0.0101
      2 C          21.1314  -19.4201   16.4928 C.3     1  UNL1        0.0854
      3 N          20.1550  -21.3843   17.6360 N.am    1  UNL1       -0.2839
      4 C          21.0237  -20.9053   16.7235 C.2     1  UNL1        0.2261
      5 O          21.7151  -21.6700   16.0846 O.2     1  UNL1       -0.2748
      6 H          19.6436  -20.7625   18.2025 H       1  UNL1        0.1549
      7 C          20.6293  -24.8492   18.7774 C.ar    1  UNL1        0.0025
      8 C          20.8012  -23.4856   18.6366 C.ar    1  UNL1        0.0148
      9 C          19.9801  -22.7653   17.7780 C.ar    1  UNL1        0.0515
     10 C          18.9830  -23.4159   17.0657 C.ar    1  UNL1        0.0293
     11 C          18.8169  -24.7866   17.2045 C.ar    1  UNL1        0.0519
     12 C          19.6413  -25.5011   18.0650 C.ar    1  UNL1        0.0148
     13 N          17.8169  -25.4470   16.4841 N.am    1  UNL1       -0.2778
     14 C          16.6867  -25.8394   17.1048 C.2     1  UNL1        0.2842
     15 O          16.4934  -25.5345   18.2670 O.2     1  UNL1       -0.2665
     16 H          17.9383  -25.6253   15.5236 H       1  UNL1        0.1553
     17 C          15.6901  -26.6338   16.3798 C.ar    1  UNL1        0.1988
     18 C          15.7003  -26.9067   15.0417 C.ar    1  UNL1        0.0455
     19 C          14.5670  -27.6927   14.7816 C.ar    1  UNL1        0.0440
     20 C          13.9228  -27.8633   15.9572 C.ar    1  UNL1        0.1798
     21 O          14.6054  -27.2282   16.9187 O.2     1  UNL1       -0.4458
     22 C          21.8084  -19.0784   14.1121 C.3     1  UNL1        0.0101
     23 C          21.3530  -19.6244   12.7574 C.3     1  UNL1        0.0854
     24 C          21.7503  -21.0733   12.6404 C.2     1  UNL1        0.2261
     25 O          21.1148  -21.8207   11.9272 O.2     1  UNL1       -0.2748
     26 N          22.8117  -21.5388   13.3283 N.am    1  UNL1       -0.2839
     27 H          23.2795  -20.9535   13.9669 H       1  UNL1        0.1549
     28 C          23.2488  -22.8538   13.1348 C.ar    1  UNL1        0.0515
     29 C          24.3005  -23.1162   12.2659 C.ar    1  UNL1        0.0148
     30 C          24.7328  -24.4145   12.0743 C.ar    1  UNL1        0.0025
     31 C          24.1209  -25.4556   12.7450 C.ar    1  UNL1        0.0148
     32 C          23.0684  -25.1998   13.6155 C.ar    1  UNL1        0.0519
     33 C          22.6360  -23.8964   13.8148 C.ar    1  UNL1        0.0293
     34 N          22.4498  -26.2542   14.2945 N.am    1  UNL1       -0.2778
     35 C          21.1220  -26.4494   14.1693 C.2     1  UNL1        0.2842
     36 O          20.4793  -25.7762   13.3851 O.2     1  UNL1       -0.2665
     37 H          22.9840  -26.8538   14.8639 H       1  UNL1        0.1553
     38 C          20.4521  -27.4727   14.9779 C.ar    1  UNL1        0.1988
     39 C          21.0351  -28.2386   15.9466 C.ar    1  UNL1        0.0455
     40 C          20.0315  -29.0767   16.4569 C.ar    1  UNL1        0.0440
     41 C          18.8943  -28.7895   15.7856 C.ar    1  UNL1        0.1798
     42 O          19.1505  -27.8188   14.8991 O.2     1  UNL1       -0.4458
@<TRIPOS>BOND
     1     7    12   ar
     2     7     8   ar
     3     8     9   ar
     4     9    10   ar
     5     9     3    1
     6    10    11   ar
     7    11    12   ar
     8    11    13    1
     9    13    14   am
    10    14    15    2
    11    14    17    1
    12    17    21   ar
    13    17    18   ar
    14    18    19   ar
    15    19    20   ar
    16    20    21   ar
    17     3     4   am
    18     4     5    2
    19     4     2    1
    20     2     1    1
    21     1    22    1
    22    22    23    1
    23    23    24    1
    24    24    25    2
    25    24    26   am
    26    26    28    1
    27    28    33   ar
    28    28    29   ar
    29    29    30   ar
    30    30    31   ar
    31    31    32   ar
    32    32    33   ar
    33    32    34    1
    34    34    35   am
    35    35    36    2
    36    35    38    1
    37    38    42   ar
    38    38    39   ar
    39    39    40   ar
    40    40    41   ar
    41    41    42   ar
    42    13    16    1
    43     3     6    1
    44    26    27    1
    45    34    37    1
#	Name:			ZINC14580448
#	Creating user name:	trannguyen
#	Creation time:		Wed Dec  7 14:36:19 2022


#	Modifying user name:	trannguyen
#	Modification time:	Wed Dec  7 14:36:19 2022

@<TRIPOS>MOLECULE
ZINC14580448
 40 42 0 0 0
SMALL
GASTEIGER

@<TRIPOS>ATOM
      1 C          17.7349  -25.2914   13.5461 C.ar    1  UNL1        0.0269
      2 C          17.0771  -24.1292   13.1584 C.ar    1  UNL1        0.0062
      3 C          15.7944  -23.8786   13.6049 C.ar    1  UNL1        0.0018
      4 C          15.1648  -24.7756   14.4470 C.ar    1  UNL1        0.0147
      5 C          15.8184  -25.9359   14.8427 C.ar    1  UNL1        0.0500
      6 C          17.1050  -26.1942   14.3919 C.ar    1  UNL1        0.0208
      7 N          15.1799  -26.8431   15.6948 N.am    1  UNL1       -0.2956
      8 H          14.2487  -27.1106   15.5202 H       1  UNL1        0.1539
      9 C          15.8397  -27.3511   16.7546 C.2     1  UNL1        0.1389
     10 S          16.3694  -28.9789   16.7333 S.2     1  UNL1       -0.0182
     11 N          16.0825  -26.5775   17.8312 N.am    1  UNL1       -0.2957
     12 H          15.4489  -26.5695   18.5846 H       1  UNL1        0.1539
     13 C          17.2293  -25.7897   17.8779 C.ar    1  UNL1        0.0496
     14 C          18.4852  -26.3873   17.8117 C.ar    1  UNL1        0.0147
     15 C          19.6130  -25.6178   17.8514 C.ar    1  UNL1        0.0041
     16 C          19.5050  -24.2263   17.9701 C.ar    1  UNL1        0.0348
     17 C          18.2396  -23.6298   18.0422 C.ar    1  UNL1        0.0041
     18 C          17.1172  -24.4068   17.9964 C.ar    1  UNL1        0.0147
     19 C          20.7144  -23.3954   18.0184 C.2     1  UNL1        0.1735
     20 O          21.7901  -23.8722   17.7233 O.2     1  UNL1       -0.2913
     21 C          20.6196  -21.9501   18.4346 C.3     1  UNL1        0.0773
     22 S          19.3686  -25.6143   12.9703 S.3     1  UNL1       -0.1052
     23 C          20.4197  -25.2425   14.4012 C.3     1  UNL1        0.1283
     24 C          20.9544  -23.8388   14.2806 C.2     1  UNL1        0.2361
     25 O          22.1452  -23.6532   14.1434 O.2     1  UNL1       -0.2739
     26 N          20.1095  -22.7896   14.3251 N.am    1  UNL1       -0.2832
     27 H          19.1528  -22.9354   14.5058 H       1  UNL1        0.1549
     28 C          20.5930  -21.4913   14.1143 C.ar    1  UNL1        0.0506
     29 C          20.9470  -21.0824   12.8325 C.ar    1  UNL1        0.0178
     30 C          21.4235  -19.8058   12.6150 C.ar    1  UNL1        0.0379
     31 C          21.5531  -18.9203   13.6745 C.ar    1  UNL1        0.1348
     32 C          21.2037  -19.3266   14.9696 C.ar    1  UNL1        0.0489
     33 C          20.7168  -20.6192   15.1813 C.ar    1  UNL1        0.0188
     34 O          22.0225  -17.6654   13.4587 O.3     1  UNL1       -0.5055
     35 H          22.2558  -17.3950   12.5924 H       1  UNL1        0.2922
     36 C          21.3438  -18.3932   16.1019 C.2     1  UNL1        0.0758
     37 O          22.2897  -17.6319   16.1482 O.co2   1  UNL1       -0.5445
     38 O          20.4230  -18.3842   17.0857 O.co2   1  UNL1       -0.5445
     39 C          21.0437  -27.6608   14.4718 C.3     1  UNL1        0.0014
     40 C          21.5869  -26.2307   14.4470 C.3     1  UNL1        0.0204
@<TRIPOS>UNITY_ATOM_ATTR
38 1
charge -1
@<TRIPOS>BOND
     1    39    40    1
     2    40    23    1
     3    23    24    1
     4    23    22    1
     5    24    25    2
     6    24    26   am
     7    26    28    1
     8    28    33   ar
     9    28    29   ar
    10    29    30   ar
    11    30    31   ar
    12    31    32   ar
    13    31    34    1
    14    32    33   ar
    15    32    36    1
    16    36    37   ar
    17    36    38   ar
    18    22     1    1
    19     1     6   ar
    20     1     2   ar
    21     2     3   ar
    22     3     4   ar
    23     4     5   ar
    24     5     6   ar
    25     5     7    1
    26     7     9    1
    27     9    10    2
    28     9    11    1
    29    11    13    1
    30    13    18   ar
    31    13    14   ar
    32    14    15   ar
    33    15    16   ar
    34    16    17   ar
    35    16    19    1
    36    17    18   ar
    37    19    20    2
    38    19    21    1
    39    26    27    1
    40    34    35    1
    41     7     8    1
    42    11    12    1
#	Name:			ZINC14581178
#	Creating user name:	trannguyen
#	Creation time:		Wed Dec  7 14:36:20 2022


#	Modifying user name:	trannguyen
#	Modification time:	Wed Dec  7 14:36:20 2022

@<TRIPOS>MOLECULE
ZINC14581178
 40 43 0 0 0
SMALL
GASTEIGER

@<TRIPOS>ATOM
      1 C          19.9083  -25.3878   15.7413 C.ar    1  UNL1        0.0500
      2 C          21.0862  -26.0887   15.5111 C.ar    1  UNL1        0.0147
      3 C          21.4720  -26.3892   14.2190 C.ar    1  UNL1        0.0018
      4 C          20.6865  -25.9991   13.1516 C.ar    1  UNL1        0.0062
      5 C          19.5098  -25.2932   13.3744 C.ar    1  UNL1        0.0270
      6 C          19.1194  -24.9897   14.6720 C.ar    1  UNL1        0.0208
      7 N          19.5190  -25.0837   17.0498 N.am    1  UNL1       -0.2956
      8 H          18.9350  -25.7019   17.5459 H       1  UNL1        0.1539
      9 C          19.9432  -23.9444   17.6317 C.2     1  UNL1        0.1389
     10 S          21.3312  -23.9605   18.6337 S.2     1  UNL1       -0.0182
     11 N          19.2748  -22.7926   17.4247 N.am    1  UNL1       -0.2957
     12 H          18.3286  -22.7186   17.6863 H       1  UNL1        0.1539
     13 C          21.2071  -19.5535   15.6824 C.ar    1  UNL1        0.0348
     14 C          20.4759  -19.3823   16.8648 C.ar    1  UNL1        0.0041
     15 C          19.8425  -20.4500   17.4343 C.ar    1  UNL1        0.0147
     16 C          19.9224  -21.7072   16.8410 C.ar    1  UNL1        0.0496
     17 C          20.6528  -21.8833   15.6685 C.ar    1  UNL1        0.0147
     18 C          21.2851  -20.8202   15.0893 C.ar    1  UNL1        0.0041
     19 C          21.8945  -18.2523   13.5673 C.3     1  UNL1        0.0773
     20 C          21.8893  -18.4087   15.0662 C.2     1  UNL1        0.1735
     21 O          22.4486  -17.5889   15.7636 O.2     1  UNL1       -0.2913
     22 S          18.5113  -24.7906   12.0124 S.3     1  UNL1       -0.1014
     23 C          17.5377  -23.4078   12.6686 C.3     1  UNL1        0.1745
     24 C          16.2285  -23.9258   13.2062 C.2     1  UNL1        0.3216
     25 O          15.2787  -23.1792   13.3125 O.2     1  UNL1       -0.2459
     26 N          16.1134  -25.2187   13.5690 N.am    1  UNL1       -0.1741
     27 H          16.8844  -25.8247   13.4828 H       1  UNL1        0.3009
     28 C          14.9098  -25.6949   14.0632 C.2     1  UNL1        0.2860
     29 N          14.1618  -26.5970   13.5238 N.2     1  UNL1       -0.1732
     30 N          13.0143  -26.8618   14.2652 N.am    1  UNL1       -0.1078
     31 C          12.9608  -26.0951   15.3737 C.2     1  UNL1        0.2756
     32 O          12.0917  -26.0839   16.2202 O.2     1  UNL1       -0.2705
     33 C          14.2195  -25.2504   15.3359 C.3     1  UNL1        0.2035
     34 H          14.3796  -27.0500   12.6773 H       1  UNL1        0.3363
     35 C          12.0393  -27.7982   13.9046 C.ar    1  UNL1        0.0953
     36 C          10.7567  -27.3768   13.5773 C.ar    1  UNL1        0.0187
     37 C           9.7983  -28.3032   13.2162 C.ar    1  UNL1        0.0014
     38 C          10.1111  -29.6501   13.1914 C.ar    1  UNL1        0.0001
     39 C          11.3853  -30.0735   13.5222 C.ar    1  UNL1        0.0014
     40 C          12.3501  -29.1518   13.8787 C.ar    1  UNL1        0.0187
@<TRIPOS>UNITY_ATOM_ATTR
29 1
charge 1
@<TRIPOS>BOND
     1    19    20    1
     2    20    21    2
     3    20    13    1
     4    13    18   ar
     5    13    14   ar
     6    14    15   ar
     7    15    16   ar
     8    16    17   ar
     9    16    11    1
    10    17    18   ar
    11    11     9    1
    12     9    10    2
    13     9     7    1
    14     7     1    1
    15     1     6   ar
    16     1     2   ar
    17     2     3   ar
    18     3     4   ar
    19     4     5   ar
    20     5     6   ar
    21     5    22    1
    22    22    23    1
    23    23    24    1
    24    24    25    2
    25    24    26   am
    26    26    28    1
    27    28    33    1
    28    28    29    2
    29    29    30    1
    30    30    31   am
    31    30    35    1
    32    31    32    2
    33    31    33    1
    34    35    40   ar
    35    35    36   ar
    36    36    37   ar
    37    37    38   ar
    38    38    39   ar
    39    39    40   ar
    40    11    12    1
    41     7     8    1
    42    26    27    1
    43    29    34    1
#	Name:			ZINC14651400
#	Creating user name:	trannguyen
#	Creation time:		Wed Dec  7 14:36:19 2022


#	Modifying user name:	trannguyen
#	Modification time:	Wed Dec  7 14:36:19 2022

@<TRIPOS>MOLECULE
ZINC14651400
 32 34 0 0 0
SMALL
GASTEIGER

@<TRIPOS>ATOM
      1 C          21.8021  -23.7440   14.2529 C.2     1  UNL1       -0.0347
      2 S          22.8519  -22.8933   13.2016 S.2     1  UNL1       -0.0617
      3 C          20.8671  -25.7388   13.4810 C.2     1  UNL1        0.2295
      4 O          21.9157  -26.3108   13.6886 O.2     1  UNL1       -0.2744
      5 N          20.7516  -24.4236   13.7515 N.am    1  UNL1       -0.2987
      6 H          19.9001  -23.9592   13.5829 H       1  UNL1        0.1535
      7 C          19.6925  -26.4987   12.9204 C.3     1  UNL1        0.1116
      8 C          15.6485  -24.7973   15.5574 C.ar    1  UNL1       -0.0000
      9 C          16.6900  -25.6845   15.8234 C.ar    1  UNL1       -0.0000
     10 C          17.6470  -25.9418   14.8907 C.ar    1  UNL1       -0.0003
     11 C          17.5850  -25.3080   13.6378 C.ar    1  UNL1       -0.0035
     12 C          16.5283  -24.4023   13.3687 C.ar    1  UNL1       -0.0003
     13 C          15.5582  -24.1624   14.3570 C.ar    1  UNL1       -0.0000
     14 C          16.4687  -23.7654   12.1179 C.ar    1  UNL1       -0.0000
     15 C          17.4264  -24.0220   11.1851 C.ar    1  UNL1       -0.0003
     16 C          18.4679  -24.9085   11.4513 C.ar    1  UNL1       -0.0038
     17 C          18.5581  -25.5434   12.6520 C.ar    1  UNL1       -0.0131
     18 N          22.0262  -23.7344   15.5819 N.am    1  UNL1       -0.6270
     19 C          20.9542  -23.6785   16.4680 C.ar    1  UNL1       -0.1191
     20 C          20.5880  -24.8055   17.1923 C.ar    1  UNL1       -0.0245
     21 C          19.5251  -24.7477   18.0707 C.ar    1  UNL1       -0.0019
     22 C          18.8165  -23.5685   18.2376 C.ar    1  UNL1        0.0000
     23 C          19.1687  -22.4390   17.5316 C.ar    1  UNL1        0.0027
     24 C          20.2386  -22.4834   16.6344 C.ar    1  UNL1        0.0306
     25 C          20.6173  -21.2794   15.8712 C.2     1  UNL1        0.2441
     26 O          20.0132  -20.9874   14.8572 O.2     1  UNL1       -0.2702
     27 N          21.6330  -20.5029   16.2978 N.am    1  UNL1       -0.2985
     28 H          22.1195  -20.7371   17.1211 H       1  UNL1        0.1498
     29 C          22.0131  -19.3104   15.5364 C.3     1  UNL1        0.1215
     30 C          21.1751  -18.1185   16.0034 C.3     1  UNL1        0.1583
     31 O          22.0403  -17.0844   16.4770 O.3     1  UNL1       -0.3802
     32 H          22.5682  -17.4189   17.2188 H       1  UNL1        0.2105
@<TRIPOS>UNITY_ATOM_ATTR
18 1
charge -1
@<TRIPOS>BOND
     1     8    13   ar
     2     8     9   ar
     3     9    10   ar
     4    10    11   ar
     5    11    17   ar
     6    11    12   ar
     7    12    13   ar
     8    12    14   ar
     9    14    15   ar
    10    15    16   ar
    11    16    17   ar
    12    17     7    1
    13     7     3    1
    14     3     4    2
    15     3     5   am
    16     5     1    1
    17     1     2    2
    18     1    18    1
    19    18    19    1
    20    19    24   ar
    21    19    20   ar
    22    20    21   ar
    23    21    22   ar
    24    22    23   ar
    25    23    24   ar
    26    24    25    1
    27    25    26    2
    28    25    27   am
    29    27    29    1
    30    29    30    1
    31    30    31    1
    32     5     6    1
    33    27    28    1
    34    31    32    1
#	Name:			ZINC14793163
#	Creating user name:	trannguyen
#	Creation time:		Wed Dec  7 14:36:19 2022


#	Modifying user name:	trannguyen
#	Modification time:	Wed Dec  7 14:36:19 2022

@<TRIPOS>MOLECULE
ZINC14793163
 32 33 0 0 0
SMALL
GASTEIGER

@<TRIPOS>ATOM
      1 C          13.9242  -25.7662   15.1774 C.2     1  UNL1        0.2593
      2 O          12.9301  -25.0657   15.1359 O.2     1  UNL1       -0.2691
      3 N          13.8070  -27.0901   15.4011 N.am    1  UNL1       -0.2774
      4 H          14.6036  -27.6675   15.3668 H       1  UNL1        0.1553
      5 C          12.5519  -27.6443   15.6823 C.ar    1  UNL1        0.0862
      6 C          12.1652  -27.8565   16.9971 C.ar    1  UNL1        0.0324
      7 C          10.9207  -28.4053   17.2724 C.ar    1  UNL1        0.0517
      8 C          10.0639  -28.7410   16.2324 C.ar    1  UNL1        0.0179
      9 C          10.4484  -28.5304   14.9219 C.ar    1  UNL1        0.0395
     10 C          11.6876  -27.9779   14.6420 C.ar    1  UNL1        0.1521
     11 N          10.5285  -28.6204   18.6001 N.am    1  UNL1       -0.2839
     12 C          10.2645  -27.5707   19.4032 C.2     1  UNL1        0.2266
     13 O          10.4679  -26.4410   19.0112 O.2     1  UNL1       -0.2748
     14 C           9.7168  -27.8006   20.7882 C.3     1  UNL1        0.0949
     15 H          10.4457  -29.5383   18.9465 H       1  UNL1        0.1549
     16 O          12.0621  -27.7655   13.3515 O.3     1  UNL1       -0.4702
     17 C          12.7301  -28.8386   12.6848 C.3     1  UNL1        0.2525
     18 C          16.3421  -25.6719   15.6666 C.2     1  UNL1        0.0160
     19 C          15.2525  -25.1687   14.9837 C.2     1  UNL1        0.1219
     20 N          19.5579  -23.9928   15.8084 N.ar    1  UNL1       -0.3340
     21 C          19.6162  -24.4643   14.5284 C.ar    1  UNL1        0.0371
     22 C          18.4913  -25.1463   14.2565 C.ar    1  UNL1        0.0139
     23 C          17.6640  -25.0817   15.4695 C.ar    1  UNL1        0.0136
     24 C          18.3981  -24.3511   16.3892 C.ar    1  UNL1        0.0371
     25 C          17.9724  -24.0165   17.7957 C.3     1  UNL1        0.0500
     26 C          20.7641  -24.2583   13.5740 C.3     1  UNL1        0.0500
     27 C          20.6101  -23.2073   16.4582 C.3     1  UNL1        0.1054
     28 C          20.4070  -21.7238   16.1436 C.3     1  UNL1        0.0245
     29 C          19.9221  -19.4853   17.1418 C.3     1  UNL1        0.0001
     30 C          19.9549  -20.9915   17.4086 C.3     1  UNL1        0.0020
     31 C          15.4171  -24.0647   14.0867 C.1     1  UNL1        0.1050
     32 N          15.5476  -23.1889   13.3751 N.1     1  UNL1       -0.1907
@<TRIPOS>BOND
     1    29    30    1
     2    30    28    1
     3    28    27    1
     4    27    20    1
     5    20    24   ar
     6    20    21   ar
     7    21    22   ar
     8    21    26    1
     9    22    23   ar
    10    23    24   ar
    11    23    18    1
    12    24    25    1
    13    18    19    2
    14    19    31    1
    15    19     1    1
    16    31    32    3
    17     1     2    2
    18     1     3   am
    19     3     5    1
    20     5    10   ar
    21     5     6   ar
    22     6     7   ar
    23     7     8   ar
    24     7    11    1
    25     8     9   ar
    26     9    10   ar
    27    10    16    1
    28    16    17    1
    29    11    12   am
    30    12    13    2
    31    12    14    1
    32     3     4    1
    33    11    15    1
#	Name:			ZINC14831549
#	Creating user name:	trannguyen
#	Creation time:		Wed Dec  7 14:36:20 2022


#	Modifying user name:	trannguyen
#	Modification time:	Wed Dec  7 14:36:20 2022

@<TRIPOS>MOLECULE
ZINC14831549
 32 33 0 0 0
SMALL
GASTEIGER

@<TRIPOS>ATOM
      1 C          18.7605  -24.7648   14.3518 C.2     1  UNL1       -0.0344
      2 S          19.0925  -24.4386   12.7043 S.2     1  UNL1       -0.0617
      3 N          17.4889  -24.9454   14.7600 N.am    1  UNL1       -0.2955
      4 C          16.9896  -26.1918   14.8784 C.2     1  UNL1        0.2485
      5 O          17.6863  -27.1529   14.6169 O.2     1  UNL1       -0.2698
      6 H          16.9247  -24.1669   14.9717 H       1  UNL1        0.1538
      7 C          15.5977  -26.3894   15.3253 C.ar    1  UNL1        0.0538
      8 C          14.6005  -25.4939   14.9289 C.ar    1  UNL1        0.0076
      9 C          13.3018  -25.6844   15.3447 C.ar    1  UNL1        0.0370
     10 C          12.9836  -26.7602   16.1655 C.ar    1  UNL1        0.1384
     11 C          13.9733  -27.6502   16.5664 C.ar    1  UNL1        0.0370
     12 C          15.2735  -27.4696   16.1511 C.ar    1  UNL1        0.0076
     13 O          11.7033  -26.9418   16.5770 O.3     1  UNL1       -0.4792
     14 C          11.5020  -27.7672   17.7260 C.3     1  UNL1        0.1660
     15 C          10.3491  -28.7376   17.4613 C.3     1  UNL1        0.0472
     16 C          11.1625  -26.8888   18.9320 C.3     1  UNL1        0.0435
     17 C          12.2093  -27.1001   20.0275 C.3     1  UNL1        0.0038
     18 N          19.7708  -24.8409   15.2406 N.am    1  UNL1       -0.6264
     19 C          20.2616  -21.4452   16.5750 C.ar    1  UNL1        0.0485
     20 C          20.4364  -21.7188   17.9257 C.ar    1  UNL1        0.0154
     21 C          20.3810  -23.0221   18.3811 C.ar    1  UNL1        0.0108
     22 C          20.1629  -24.0588   17.4928 C.ar    1  UNL1        0.0350
     23 C          19.9925  -23.7915   16.1393 C.ar    1  UNL1       -0.1114
     24 C          20.0420  -22.4829   15.6807 C.ar    1  UNL1       -0.0091
     25 CL         20.1012  -25.6955   18.0682 Cl      1  UNL1       -0.0842
     26 C          21.4555  -19.6353   15.5947 C.2     1  UNL1        0.2261
     27 O          22.4649  -20.3076   15.6097 O.2     1  UNL1       -0.2748
     28 N          20.3126  -20.1239   16.1158 N.am    1  UNL1       -0.2840
     29 H          19.5137  -19.5515   16.1733 H       1  UNL1        0.1549
     30 C          21.4777  -18.2562   14.9877 C.3     1  UNL1        0.0854
     31 C          21.2746  -19.5285   12.8471 C.3     1  UNL1        0.0005
     32 C          21.9561  -18.3451   13.5371 C.3     1  UNL1        0.0096
@<TRIPOS>UNITY_ATOM_ATTR
18 1
charge -1
@<TRIPOS>BOND
     1    31    32    1
     2    32    30    1
     3    30    26    1
     4    26    27    2
     5    26    28   am
     6    28    19    1
     7    19    24   ar
     8    19    20   ar
     9    20    21   ar
    10    21    22   ar
    11    22    23   ar
    12    22    25    1
    13    23    24   ar
    14    23    18    1
    15    18     1    1
    16     1     2    2
    17     1     3    1
    18     3     4   am
    19     4     5    2
    20     4     7    1
    21     7    12   ar
    22     7     8   ar
    23     8     9   ar
    24     9    10   ar
    25    10    11   ar
    26    10    13    1
    27    11    12   ar
    28    13    14    1
    29    14    15    1
    30    14    16    1
    31    16    17    1
    32    28    29    1
    33     3     6    1
#	Name:			ZINC14892028
#	Creating user name:	trannguyen
#	Creation time:		Wed Dec  7 14:36:20 2022


#	Modifying user name:	trannguyen
#	Modification time:	Wed Dec  7 14:36:20 2022

@<TRIPOS>MOLECULE
ZINC14892028
 38 41 0 0 0
SMALL
GASTEIGER

@<TRIPOS>ATOM
      1 C          19.2025  -25.2607   15.7149 C.ar    1  UNL1        0.0562
      2 C          19.7668  -26.3501   15.0485 C.ar    1  UNL1        0.0047
      3 C          18.9551  -27.3417   14.5368 C.ar    1  UNL1        0.0016
      4 C          17.5820  -27.2555   14.6713 C.ar    1  UNL1        0.0149
      5 C          17.0101  -26.1724   15.3279 C.ar    1  UNL1        0.0324
      6 C          17.8174  -25.1735   15.8507 C.ar    1  UNL1        0.0195
      7 N          15.6203  -26.0896   15.4610 N.ar    1  UNL1       -0.4817
      8 C          14.7439  -25.1244   14.7828 C.2     1  UNL1       -0.3366
      9 C          13.3477  -25.4575   15.2641 C.ar    1  UNL1        0.0299
     10 O          12.3120  -24.9026   14.9522 O.2     1  UNL1       -0.3265
     11 C          13.4975  -26.5415   16.1472 C.ar    1  UNL1        0.0543
     12 C          14.8421  -26.8922   16.2364 C.ar    1  UNL1        0.0791
     13 N          15.3199  -27.9106   17.0079 N.pl3   1  UNL1       -0.3457
     14 H          16.2849  -28.1048   17.0243 H       1  UNL1        0.1436
     15 H          14.6997  -28.4515   17.5483 H       1  UNL1        0.1436
     16 C          12.3981  -27.2087   16.8641 C.ar    1  UNL1        0.1135
     17 N          12.0824  -27.1400   18.1418 N.ar    1  UNL1       -0.2382
     18 C          11.0348  -27.8100   18.6646 C.ar    1  UNL1        0.0879
     19 C          10.5880  -27.8208   20.0070 C.ar    1  UNL1        0.0196
     20 C           9.4997  -28.5667   20.3766 C.ar    1  UNL1        0.0016
     21 C           8.8005  -29.3346   19.4563 C.ar    1  UNL1        0.0006
     22 C           9.2096  -29.3482   18.1353 C.ar    1  UNL1        0.0080
     23 C          10.2983  -28.6040   17.7552 C.ar    1  UNL1        0.0485
     24 S          11.1567  -28.3242   16.2249 S.2     1  UNL1       -0.0664
     25 N          19.5755  -22.9633   16.4756 N.am    1  UNL1       -0.2278
     26 C          20.0704  -24.1998   16.2696 C.2     1  UNL1        0.2616
     27 O          21.2302  -24.4431   16.5401 O.2     1  UNL1       -0.2686
     28 H          18.6361  -22.7663   16.2566 H       1  UNL1        0.1734
     29 N          20.3979  -21.9582   17.0013 N.am    1  UNL1       -0.2185
     30 C          20.5725  -21.8383   18.4509 C.3     1  UNL1        0.1372
     31 C          21.0328  -21.1053   16.1731 C.2     1  UNL1        0.1507
     32 S          20.7723  -19.4193   16.3167 S.2     1  UNL1       -0.0172
     33 N          21.8728  -21.5796   15.2319 N.am    1  UNL1       -0.3148
     34 H          22.6385  -22.1406   15.4930 H       1  UNL1        0.1485
     35 C          21.6461  -21.2605   13.8201 C.3     1  UNL1        0.0884
     36 C          20.7561  -22.3344   13.1911 C.3     1  UNL1        0.0212
     37 C          18.3573  -22.9469   12.8551 C.3     1  UNL1        0.0001
     38 C          19.3389  -21.7846   13.0175 C.3     1  UNL1        0.0017
@<TRIPOS>UNITY_ATOM_ATTR
8 1
charge -1
@<TRIPOS>BOND
     1    37    38    1
     2    38    36    1
     3    36    35    1
     4    35    33    1
     5    33    31    1
     6    31    32    2
     7    31    29    1
     8    29    30    1
     9    29    25    1
    10    25    26   am
    11    26    27    2
    12    26     1    1
    13     1     6   ar
    14     1     2   ar
    15     2     3   ar
    16     3     4   ar
    17     4     5   ar
    18     5     6   ar
    19     5     7    1
    20     7    12   ar
    21     7     8   ar
    22     8     9   ar
    23     9    10    2
    24     9    11   ar
    25    11    12   ar
    26    11    16    1
    27    12    13    1
    28    16    24   ar
    29    16    17   ar
    30    17    18   ar
    31    18    23   ar
    32    18    19   ar
    33    19    20   ar
    34    20    21   ar
    35    21    22   ar
    36    22    23   ar
    37    23    24   ar
    38    33    34    1
    39    25    28    1
    40    13    14    1
    41    13    15    1
#	Name:			ZINC14908107
#	Creating user name:	trannguyen
#	Creation time:		Wed Dec  7 14:36:20 2022


#	Modifying user name:	trannguyen
#	Modification time:	Wed Dec  7 14:36:20 2022

@<TRIPOS>MOLECULE
ZINC14908107
 48 52 0 0 0
SMALL
GASTEIGER

@<TRIPOS>ATOM
      1 C          20.3493  -23.0572   13.6693 C.3     1  UNL1        0.1107
      2 C          19.1158  -23.5407   12.9071 C.3     1  UNL1        0.1572
      3 C          17.9427  -23.7970   13.8282 C.3     1  UNL1        0.1572
      4 C          18.2404  -24.7288   14.9818 C.3     1  UNL1        0.1107
      5 N          19.2593  -25.7143   14.6262 N.am    1  UNL1       -0.2588
      6 C          20.5533  -25.3769   14.5122 C.2     1  UNL1        0.3077
      7 O          21.3631  -26.2893   14.5506 O.2     1  UNL1       -0.2523
      8 N          21.0437  -24.1694   14.3060 N.am    1  UNL1       -0.2588
      9 O          16.8817  -24.3757   13.0515 O.3     1  UNL1       -0.3802
     10 O          18.7452  -22.5566   11.9325 O.3     1  UNL1       -0.3802
     11 H          17.1735  -25.2266   12.6887 H       1  UNL1        0.2105
     12 H          18.5210  -21.7261   12.3806 H       1  UNL1        0.2105
     13 C          19.9909  -21.9912   14.6996 C.3     1  UNL1        0.0488
     14 C          21.9367  -18.3246   13.6909 C.ar    1  UNL1       -0.0000
     15 C          21.6635  -18.6212   15.0132 C.ar    1  UNL1       -0.0003
     16 C          21.0287  -19.8051   15.3390 C.ar    1  UNL1       -0.0042
     17 C          20.6773  -20.6976   14.3437 C.ar    1  UNL1       -0.0204
     18 C          20.9552  -20.4036   13.0220 C.ar    1  UNL1       -0.0042
     19 C          21.5848  -19.2170   12.6955 C.ar    1  UNL1       -0.0003
     20 C          22.4188  -23.9238   14.7620 C.3     1  UNL1        0.1217
     21 C          23.3610  -24.0165   13.5895 C.ar    1  UNL1       -0.0022
     22 C          23.7545  -22.8667   12.9276 C.ar    1  UNL1       -0.0026
     23 C          24.6194  -22.9426   11.8505 C.ar    1  UNL1       -0.0002
     24 C          25.0957  -24.1671   11.4293 C.ar    1  UNL1        0.0016
     25 C          24.7029  -25.3309   12.0926 C.ar    1  UNL1        0.0222
     26 C          23.8338  -25.2465   13.1821 C.ar    1  UNL1       -0.0010
     27 C          25.2086  -26.6447   11.6474 C.2     1  UNL1        0.1398
     28 N          26.1971  -27.2013   12.2685 N.2     1  UNL1       -0.0847
     29 O          26.6821  -28.4614   11.8415 O.2     1  UNL1       -0.4087
     30 H          27.3982  -28.8647   12.2914 H       1  UNL1        0.3278
     31 C          18.8592  -27.1072   14.3915 C.3     1  UNL1        0.1217
     32 C          18.7844  -27.8370   15.7079 C.ar    1  UNL1       -0.0022
     33 C          17.9421  -28.9261   15.8465 C.ar    1  UNL1       -0.0026
     34 C          17.8676  -29.6019   17.0512 C.ar    1  UNL1       -0.0002
     35 C          18.6338  -29.1935   18.1236 C.ar    1  UNL1        0.0016
     36 C          19.4856  -28.0956   17.9906 C.ar    1  UNL1        0.0222
     37 C          19.5598  -27.4212   16.7702 C.ar    1  UNL1       -0.0010
     38 C          20.3085  -27.6529   19.1338 C.2     1  UNL1        0.1398
     39 N          20.3620  -26.3986   19.4447 N.2     1  UNL1       -0.0847
     40 O          21.1511  -25.9741   20.5411 O.2     1  UNL1       -0.4087
     41 H          21.1899  -25.0654   20.7664 H       1  UNL1        0.3278
     42 C          16.9538  -25.4635   15.3775 C.3     1  UNL1        0.0488
     43 C          16.7968  -25.4298   16.8759 C.ar    1  UNL1       -0.0204
     44 C          15.9949  -26.3617   17.5080 C.ar    1  UNL1       -0.0042
     45 C          15.8539  -26.3331   18.8829 C.ar    1  UNL1       -0.0003
     46 C          16.5084  -25.3677   19.6248 C.ar    1  UNL1       -0.0000
     47 C          17.3061  -24.4326   18.9923 C.ar    1  UNL1       -0.0003
     48 C          17.4502  -24.4636   17.6177 C.ar    1  UNL1       -0.0042
@<TRIPOS>BOND
     1    14    19   ar
     2    14    15   ar
     3    15    16   ar
     4    16    17   ar
     5    17    18   ar
     6    17    13    1
     7    18    19   ar
     8    13     1    1
     9     1     8    1
    10     1     2    1
    11     2     3    1
    12     2    10    1
    13     3     4    1
    14     3     9    1
    15     4     5    1
    16     4    42    1
    17     5     6   am
    18     5    31    1
    19     6     7    2
    20     6     8   am
    21     8    20    1
    22    20    21    1
    23    21    26   ar
    24    21    22   ar
    25    22    23   ar
    26    23    24   ar
    27    24    25   ar
    28    25    26   ar
    29    25    27    1
    30    27    28    2
    31    28    29    1
    32    31    32    1
    33    32    37   ar
    34    32    33   ar
    35    33    34   ar
    36    34    35   ar
    37    35    36   ar
    38    36    37   ar
    39    36    38    1
    40    38    39    2
    41    39    40    1
    42    42    43    1
    43    43    48   ar
    44    43    44   ar
    45    44    45   ar
    46    45    46   ar
    47    46    47   ar
    48    47    48   ar
    49    29    30    1
    50    40    41    1
    51     9    11    1
    52    10    12    1
#	Name:			ZINC14942987
#	Creating user name:	trannguyen
#	Creation time:		Wed Dec  7 14:36:20 2022


#	Modifying user name:	trannguyen
#	Modification time:	Wed Dec  7 14:36:20 2022

@<TRIPOS>MOLECULE
ZINC14942987
 42 44 0 0 0
SMALL
GASTEIGER

@<TRIPOS>ATOM
      1 S          17.2437  -27.2832   18.0423 S.3     1  UNL1       -0.0963
      2 C          18.0564  -26.1468   16.9687 C.3     1  UNL1        0.2077
      3 C          18.9695  -26.5862   16.0821 C.2     1  UNL1        0.1749
      4 C          19.6836  -25.6361   15.1599 C.3     1  UNL1        0.1060
      5 C          18.8963  -24.3314   15.0267 C.3     1  UNL1        0.1431
      6 O          18.5425  -23.8649   16.3367 O.3     1  UNL1       -0.4544
      7 C          17.7473  -24.7132   17.0387 C.2     1  UNL1        0.3341
      8 O          16.8140  -24.3006   17.7010 O.2     1  UNL1       -0.2487
      9 O          19.2468  -27.9071   16.0164 O.2     1  UNL1       -0.2945
     10 C          17.6259  -24.5782   14.2105 C.3     1  UNL1        0.0372
     11 C          17.1810  -23.2709   13.5516 C.3     1  UNL1        0.0036
     12 C          17.9091  -25.6234   13.1297 C.3     1  UNL1        0.0036
     13 C          19.7600  -23.2814   14.3250 C.3     1  UNL1        0.0452
     14 C          20.4941  -22.4419   15.3725 C.3     1  UNL1        0.0299
     15 C          20.8693  -21.1099   14.7759 C.ar    1  UNL1       -0.0219
     16 C          21.1563  -20.0396   15.6028 C.ar    1  UNL1       -0.0012
     17 C          21.5062  -18.8191   15.0584 C.ar    1  UNL1        0.0363
     18 C          21.5582  -18.6647   13.6807 C.ar    1  UNL1        0.1337
     19 C          21.2642  -19.7386   12.8531 C.ar    1  UNL1        0.0363
     20 C          20.9205  -20.9586   13.4024 C.ar    1  UNL1       -0.0012
     21 O          21.8971  -17.4636   13.1427 O.3     1  UNL1       -0.5055
     22 H          22.0955  -16.7388   13.7025 H       1  UNL1        0.2922
     23 C          12.9363  -27.2314   16.6348 C.ar    1  UNL1        0.0615
     24 C          13.2226  -27.3201   17.9911 C.ar    1  UNL1        0.0118
     25 C          14.5344  -27.3302   18.4205 C.ar    1  UNL1       -0.0158
     26 C          15.5689  -27.2635   17.4950 C.ar    1  UNL1        0.0219
     27 C          15.2823  -27.1806   16.1381 C.ar    1  UNL1        0.0029
     28 C          13.9698  -27.1647   15.7096 C.ar    1  UNL1       -0.0067
     29 C          13.6589  -27.0754   14.2377 C.3     1  UNL1        0.0324
     30 C          14.8448  -27.4201   19.8926 C.3     1  UNL1        0.0194
     31 C          13.5432  -27.3477   20.6935 C.3     1  UNL1        0.0044
     32 C          15.7557  -26.2580   20.2935 C.3     1  UNL1        0.0044
     33 C          15.5506  -28.7456   20.1849 C.3     1  UNL1        0.0044
     34 N          11.6058  -27.2157   16.1999 N.pl3   1  UNL1       -0.2057
     35 H          11.2364  -26.4083   15.7745 H       1  UNL1        0.1748
     36 S          10.6531  -28.5553   16.4010 S.O2    1  UNL1        0.1099
     37 O          11.4332  -29.6725   15.9981 O.2     1  UNL1       -0.1381
     38 O          10.0792  -28.4545   17.6970 O.2     1  UNL1       -0.1381
     39 N           9.4047  -28.4349   15.3197 N.3     1  UNL1       -0.1666
     40 H           8.5931  -28.8711   15.7573 H       1  UNL1        0.1501
     41 C          10.1386  -27.9940   13.0288 C.3     1  UNL1        0.0204
     42 C           9.5327  -29.0239   13.9845 C.3     1  UNL1        0.0928
@<TRIPOS>BOND
     1    41    42    1
     2    42    39    1
     3    39    36    1
     4    36    37    2
     5    36    38    2
     6    36    34    1
     7    34    23    1
     8    23    28   ar
     9    23    24   ar
    10    24    25   ar
    11    25    26   ar
    12    25    30    1
    13    26    27   ar
    14    26     1    1
    15    27    28   ar
    16    28    29    1
    17     1     2    1
    18     2     7    1
    19     2     3    1
    20     3     4    1
    21     3     9    2
    22     4     5    1
    23     5     6    1
    24     5    13    1
    25     5    10    1
    26     6     7    1
    27     7     8    2
    28    13    14    1
    29    14    15    1
    30    15    20   ar
    31    15    16   ar
    32    16    17   ar
    33    17    18   ar
    34    18    19   ar
    35    18    21    1
    36    19    20   ar
    37    10    11    1
    38    10    12    1
    39    30    31    1
    40    30    32    1
    41    30    33    1
    42    39    40    1
    43    34    35    1
    44    21    22    1
#	Name:			ZINC14943027
#	Creating user name:	trannguyen
#	Creation time:		Wed Dec  7 14:36:19 2022


#	Modifying user name:	trannguyen
#	Modification time:	Wed Dec  7 14:36:19 2022

@<TRIPOS>MOLECULE
ZINC14943027
 48 52 0 0 0
SMALL
GASTEIGER

@<TRIPOS>ATOM
      1 C          18.8176  -26.0919   14.4880 C.3     1  UNL1        0.0673
      2 C          19.3979  -25.5362   15.7901 C.3     1  UNL1        0.1388
      3 C          19.3030  -24.0073   15.7913 C.3     1  UNL1        0.1468
      4 C          20.3659  -23.4297   14.8907 C.ar    1  UNL1        0.0393
      5 C          20.2050  -22.1309   14.4321 C.ar    1  UNL1       -0.0002
      6 C          21.1535  -21.5558   13.6118 C.ar    1  UNL1        0.0115
      7 C          22.2788  -22.2790   13.2416 C.ar    1  UNL1        0.1327
      8 C          22.4421  -23.5767   13.6949 C.ar    1  UNL1        0.0736
      9 C          21.4829  -24.1564   14.5187 C.ar    1  UNL1        0.1497
     10 O          21.6821  -25.4371   14.9323 O.3     1  UNL1       -0.4242
     11 C          20.8650  -25.9016   15.8969 C.2     1  UNL1        0.3243
     12 O          21.2825  -26.5793   16.8061 O.2     1  UNL1       -0.2496
     13 O          23.2175  -21.7147   12.4370 O.3     1  UNL1       -0.5057
     14 O          18.0136  -23.6109   15.3196 O.3     1  UNL1       -0.3794
     15 H          23.1054  -20.8361   12.1311 H       1  UNL1        0.2922
     16 H          17.8843  -23.9406   14.4166 H       1  UNL1        0.2108
     17 C          20.9676  -20.1442   13.1179 C.3     1  UNL1        0.0294
     18 C          21.7043  -19.1776   14.0473 C.3     1  UNL1        0.0048
     19 C          20.7314  -18.6395   15.0985 C.3     1  UNL1        0.0003
     20 C          21.1458  -19.1437   16.4823 C.3     1  UNL1        0.0000
     21 C          19.9215  -19.7051   17.2082 C.3     1  UNL1        0.0000
     22 C          20.2759  -21.0536   17.8381 C.3     1  UNL1        0.0000
     23 C          13.2992  -27.4468   17.0557 C.ar    1  UNL1       -0.0373
     24 C          14.6622  -27.3516   17.0284 C.ar    1  UNL1        0.0008
     25 C          15.2988  -26.8625   15.8886 C.ar    1  UNL1        0.0731
     26 C          14.5454  -26.4673   14.7707 C.ar    1  UNL1        0.1504
     27 C          13.1628  -26.5692   14.8130 C.ar    1  UNL1        0.0208
     28 C          12.5443  -27.0574   15.9525 C.ar    1  UNL1       -0.0924
     29 O          11.1910  -27.1574   15.9934 O.co2   1  UNL1       -0.8730
     30 O          15.1726  -25.9945   13.6730 O.2     1  UNL1       -0.4239
     31 C          16.5052  -25.8802   13.6043 C.ar    1  UNL1        0.2924
     32 C          17.3241  -26.2390   14.6262 C.ar    1  UNL1        0.0926
     33 C          16.7683  -26.7452   15.8209 C.ar    1  UNL1        0.2009
     34 O          17.4748  -27.0726   16.7606 O.2     1  UNL1       -0.2866
     35 O          17.0564  -25.3929   12.4726 O.3     1  UNL1       -0.4797
     36 H          16.5084  -25.1396   11.7559 H       1  UNL1        0.2953
     37 C          12.6095  -27.9755   18.2869 C.3     1  UNL1        0.0251
     38 C          13.1880  -27.2935   19.5282 C.3     1  UNL1        0.0046
     39 C          12.0516  -26.9252   20.4841 C.3     1  UNL1        0.0003
     40 C          10.7913  -26.6041   19.6785 C.3     1  UNL1        0.0000
     41 C           9.9430  -28.0760   21.5105 C.3     1  UNL1        0.0000
     42 C           9.5547  -27.0124   20.4816 C.3     1  UNL1        0.0000
     43 C          19.4305  -27.4380   14.1990 C.ar    1  UNL1       -0.0175
     44 C          20.2155  -27.6130   13.0748 C.ar    1  UNL1       -0.0039
     45 C          20.7816  -28.8466   12.8124 C.ar    1  UNL1       -0.0003
     46 C          20.5545  -29.9075   13.6688 C.ar    1  UNL1       -0.0000
     47 C          19.7648  -29.7339   14.7901 C.ar    1  UNL1       -0.0003
     48 C          19.2029  -28.4991   15.0553 C.ar    1  UNL1       -0.0039
@<TRIPOS>UNITY_ATOM_ATTR
29 1
charge -1
@<TRIPOS>BOND
     1    41    42    1
     2    42    40    1
     3    40    39    1
     4    39    38    1
     5    38    37    1
     6    37    23    1
     7    23    28   ar
     8    23    24   ar
     9    24    25   ar
    10    25    33   ar
    11    25    26   ar
    12    26    27   ar
    13    26    30   ar
    14    27    28   ar
    15    28    29    1
    16    30    31   ar
    17    31    32   ar
    18    31    35    1
    19    32    33   ar
    20    32     1    1
    21    33    34    2
    22     1    43    1
    23     1     2    1
    24    43    48   ar
    25    43    44   ar
    26    44    45   ar
    27    45    46   ar
    28    46    47   ar
    29    47    48   ar
    30     2    11    1
    31     2     3    1
    32     3     4    1
    33     3    14    1
    34     4     9   ar
    35     4     5   ar
    36     5     6   ar
    37     6     7   ar
    38     6    17    1
    39     7     8   ar
    40     7    13    1
    41     8     9   ar
    42     9    10    1
    43    10    11    1
    44    11    12    2
    45    17    18    1
    46    18    19    1
    47    19    20    1
    48    20    21    1
    49    21    22    1
    50    13    15    1
    51    14    16    1
    52    35    36    1
#	Name:			ZINC14943028
#	Creating user name:	trannguyen
#	Creation time:		Wed Dec  7 14:36:19 2022


#	Modifying user name:	trannguyen
#	Modification time:	Wed Dec  7 14:36:19 2022

@<TRIPOS>MOLECULE
ZINC14943028
 48 52 0 0 0
SMALL
GASTEIGER

@<TRIPOS>ATOM
      1 C          20.1356  -22.6967   15.7929 C.3     1  UNL1        0.0673
      2 C          20.9521  -22.8732   17.0747 C.3     1  UNL1        0.1388
      3 C          20.9656  -24.3494   17.4840 C.3     1  UNL1        0.1468
      4 C          19.6374  -24.7214   18.0939 C.ar    1  UNL1        0.0393
      5 C          19.2924  -26.0632   18.1516 C.ar    1  UNL1       -0.0002
      6 C          18.0911  -26.4537   18.7064 C.ar    1  UNL1        0.0115
      7 C          17.2192  -25.4996   19.2121 C.ar    1  UNL1        0.1327
      8 C          17.5584  -24.1587   19.1542 C.ar    1  UNL1        0.0736
      9 C          18.7685  -23.7664   18.5915 C.ar    1  UNL1        0.1497
     10 O          19.0552  -22.4372   18.5493 O.3     1  UNL1       -0.4242
     11 C          20.3110  -22.0933   18.2051 C.2     1  UNL1        0.3243
     12 O          20.9000  -21.2036   18.7721 O.2     1  UNL1       -0.2496
     13 O          16.0365  -25.8803   19.7628 O.3     1  UNL1       -0.5057
     14 O          22.0054  -24.5683   18.4395 O.3     1  UNL1       -0.3794
     15 H          15.8084  -26.7883   19.8012 H       1  UNL1        0.2922
     16 H          21.8457  -24.0187   19.2227 H       1  UNL1        0.2108
     17 C          17.7257  -27.9147   18.7628 C.3     1  UNL1        0.0294
     18 C          18.8255  -28.6876   19.4934 C.3     1  UNL1        0.0048
     19 C          19.0856  -30.0106   18.7702 C.3     1  UNL1        0.0003
     20 C          19.5087  -29.7284   17.3272 C.3     1  UNL1        0.0000
     21 C          20.9605  -29.2458   17.3065 C.3     1  UNL1        0.0000
     22 C          21.2073  -28.4258   16.0385 C.3     1  UNL1        0.0000
     23 C          23.0373  -26.9522   12.2784 C.ar    1  UNL1       -0.0373
     24 C          22.9671  -25.8463   13.0782 C.ar    1  UNL1        0.0008
     25 C          21.7337  -25.4320   13.5792 C.ar    1  UNL1        0.0731
     26 C          20.5656  -26.1467   13.2659 C.ar    1  UNL1        0.1504
     27 C          20.6522  -27.2673   12.4535 C.ar    1  UNL1        0.0208
     28 C          21.8847  -27.6666   11.9627 C.ar    1  UNL1       -0.0924
     29 O          21.9694  -28.7639   11.1677 O.co2   1  UNL1       -0.8730
     30 O          19.3772  -25.7362   13.7569 O.2     1  UNL1       -0.4239
     31 C          19.2620  -24.6583   14.5432 C.ar    1  UNL1        0.2924
     32 C          20.3280  -23.8991   14.9052 C.ar    1  UNL1        0.0926
     33 C          21.6167  -24.2394   14.4402 C.ar    1  UNL1        0.2009
     34 O          22.5956  -23.5758   14.7416 O.2     1  UNL1       -0.2866
     35 O          18.0373  -24.3124   14.9935 O.3     1  UNL1       -0.4797
     36 H          17.2889  -24.8234   14.7551 H       1  UNL1        0.2953
     37 C          24.3696  -27.4010   11.7356 C.3     1  UNL1        0.0251
     38 C          25.0842  -26.2119   11.0904 C.3     1  UNL1        0.0046
     39 C          24.8116  -26.2088    9.5849 C.3     1  UNL1        0.0003
     40 C          24.4365  -27.6211    9.1315 C.3     1  UNL1        0.0000
     41 C          24.8138  -26.4720    6.9453 C.3     1  UNL1        0.0000
     42 C          24.8562  -27.8170    7.6733 C.3     1  UNL1        0.0000
     43 C          20.5983  -21.4586   15.0691 C.ar    1  UNL1       -0.0175
     44 C          21.4416  -20.5634   15.7003 C.ar    1  UNL1       -0.0039
     45 C          21.8697  -19.4300   15.0349 C.ar    1  UNL1       -0.0003
     46 C          21.4471  -19.1869   13.7414 C.ar    1  UNL1       -0.0000
     47 C          20.5995  -20.0794   13.1119 C.ar    1  UNL1       -0.0003
     48 C          20.1750  -21.2151   13.7759 C.ar    1  UNL1       -0.0039
@<TRIPOS>UNITY_ATOM_ATTR
29 1
charge -1
@<TRIPOS>BOND
     1    41    42    1
     2    42    40    1
     3    40    39    1
     4    39    38    1
     5    38    37    1
     6    37    23    1
     7    23    28   ar
     8    23    24   ar
     9    24    25   ar
    10    25    33   ar
    11    25    26   ar
    12    26    27   ar
    13    26    30   ar
    14    27    28   ar
    15    28    29    1
    16    30    31   ar
    17    31    32   ar
    18    31    35    1
    19    32    33   ar
    20    32     1    1
    21    33    34    2
    22     1    43    1
    23     1     2    1
    24    43    48   ar
    25    43    44   ar
    26    44    45   ar
    27    45    46   ar
    28    46    47   ar
    29    47    48   ar
    30     2    11    1
    31     2     3    1
    32     3     4    1
    33     3    14    1
    34     4     9   ar
    35     4     5   ar
    36     5     6   ar
    37     6     7   ar
    38     6    17    1
    39     7     8   ar
    40     7    13    1
    41     8     9   ar
    42     9    10    1
    43    10    11    1
    44    11    12    2
    45    17    18    1
    46    18    19    1
    47    19    20    1
    48    20    21    1
    49    21    22    1
    50    13    15    1
    51    14    16    1
    52    35    36    1
#	Name:			ZINC14943131
#	Creating user name:	trannguyen
#	Creation time:		Wed Dec  7 14:36:19 2022


#	Modifying user name:	trannguyen
#	Modification time:	Wed Dec  7 14:36:19 2022

@<TRIPOS>MOLECULE
ZINC14943131
 50 55 0 0 0
SMALL
GASTEIGER

@<TRIPOS>ATOM
      1 C          19.1127  -25.4005   19.2130 C.3     1  UNL1        0.1418
      2 C          17.6188  -25.1672   19.3161 C.2     1  UNL1        0.1764
      3 O          17.0274  -24.5483   20.1788 O.2     1  UNL1       -0.2937
      4 C          17.0633  -25.8177   18.2034 C.3     1  UNL1        0.1078
      5 C          18.0291  -26.4030   17.4694 C.2     1  UNL1        0.0746
      6 N          19.2680  -26.2019   17.9890 N.2     1  UNL1       -0.2695
      7 C          15.5922  -25.8608   17.8789 C.3     1  UNL1        0.0751
      8 C          15.3857  -25.8951   16.3798 C.ar    1  UNL1       -0.0220
      9 C          15.4494  -24.8784   15.4416 C.ar    1  UNL1       -0.0044
     10 C          15.2196  -25.1489   14.1069 C.ar    1  UNL1       -0.0003
     11 C          14.9255  -26.4386   13.7050 C.ar    1  UNL1       -0.0003
     12 C          14.8623  -27.4540   14.6390 C.ar    1  UNL1       -0.0045
     13 C          15.0918  -27.1845   15.9780 C.ar    1  UNL1       -0.0224
     14 C          15.0807  -28.1050   17.1796 C.3     1  UNL1        0.0700
     15 C          14.9664  -27.1708   18.4029 C.3     1  UNL1        0.1794
     16 O          15.7226  -27.6958   19.5258 O.3     1  UNL1       -0.4379
     17 C          15.1135  -27.6956   20.7266 C.2     1  UNL1        0.3984
     18 O          14.6042  -28.7145   21.1496 O.2     1  UNL1       -0.2267
     19 N          15.0686  -26.5653   21.4592 N.am    1  UNL1       -0.2950
     20 H          15.4812  -25.7398   21.1165 H       1  UNL1        0.1482
     21 H          14.6231  -26.5651   22.3372 H       1  UNL1        0.1482
     22 C          19.8548  -24.0692   19.0794 C.3     1  UNL1        0.0608
     23 C          20.9080  -24.1810   17.9754 C.3     1  UNL1        0.1310
     24 O          22.2045  -23.9461   18.5283 O.3     1  UNL1       -0.3827
     25 H          22.2348  -23.0571   18.9152 H       1  UNL1        0.2104
     26 C          20.6209  -23.1422   16.8895 C.3     1  UNL1        0.1059
     27 N          19.6029  -23.6622   15.9732 N.am    1  UNL1       -0.2696
     28 C          19.9683  -24.4172   14.9182 C.2     1  UNL1        0.4016
     29 O          21.1421  -24.6665   14.7271 O.2     1  UNL1       -0.2264
     30 H          18.6519  -23.4601   16.1281 H       1  UNL1        0.1528
     31 O          19.0328  -24.8950   14.0761 O.3     1  UNL1       -0.4357
     32 C          19.2169  -24.6209   12.6622 C.3     1  UNL1        0.2024
     33 C          18.0178  -25.1583   11.8343 C.3     1  UNL1        0.0784
     34 C          18.0387  -24.1908   10.6242 C.3     1  UNL1        0.1461
     35 O          18.4180  -22.9170   11.1689 O.3     1  UNL1       -0.3498
     36 C          19.1535  -23.1037   12.3838 C.3     1  UNL1        0.1856
     37 C          20.1124  -21.8532   17.5383 C.3     1  UNL1        0.0485
     38 C          21.2871  -18.5034   15.1622 C.ar    1  UNL1       -0.0000
     39 C          20.4024  -18.3311   16.2103 C.ar    1  UNL1       -0.0003
     40 C          20.0225  -19.4150   16.9794 C.ar    1  UNL1       -0.0042
     41 C          20.5265  -20.6715   16.6999 C.ar    1  UNL1       -0.0204
     42 C          21.4150  -20.8430   15.6547 C.ar    1  UNL1       -0.0042
     43 C          21.7915  -19.7598   14.8829 C.ar    1  UNL1       -0.0003
     44 C          19.6187  -26.1776   20.4300 C.3     1  UNL1        0.0559
     45 C          20.3133  -27.4336   19.9707 C.ar    1  UNL1       -0.0199
     46 C          19.6309  -28.6358   19.9582 C.ar    1  UNL1       -0.0042
     47 C          20.2669  -29.7871   19.5331 C.ar    1  UNL1       -0.0003
     48 C          21.5879  -29.7380   19.1288 C.ar    1  UNL1       -0.0000
     49 C          22.2718  -28.5368   19.1459 C.ar    1  UNL1       -0.0003
     50 C          21.6346  -27.3847   19.5673 C.ar    1  UNL1       -0.0042
@<TRIPOS>BOND
     1    38    43   ar
     2    38    39   ar
     3    39    40   ar
     4    40    41   ar
     5    41    42   ar
     6    41    37    1
     7    42    43   ar
     8    37    26    1
     9    26    23    1
    10    26    27    1
    11    23    22    1
    12    23    24    1
    13    22     1    1
    14     1     2    1
    15     1    44    1
    16     1     6    1
    17     2     3    2
    18     2     4    1
    19     4     7    1
    20     4     5    1
    21     5     6    2
    22     7    15    1
    23     7     8    1
    24     8    13   ar
    25     8     9   ar
    26     9    10   ar
    27    10    11   ar
    28    11    12   ar
    29    12    13   ar
    30    13    14    1
    31    14    15    1
    32    15    16    1
    33    16    17    1
    34    17    18    2
    35    17    19   am
    36    44    45    1
    37    45    50   ar
    38    45    46   ar
    39    46    47   ar
    40    47    48   ar
    41    48    49   ar
    42    49    50   ar
    43    27    28   am
    44    28    29    2
    45    28    31    1
    46    31    32    1
    47    32    36    1
    48    32    33    1
    49    33    34    1
    50    34    35    1
    51    35    36    1
    52    19    20    1
    53    19    21    1
    54    24    25    1
    55    27    30    1
#	Name:			ZINC14943132
#	Creating user name:	trannguyen
#	Creation time:		Wed Dec  7 14:36:19 2022


#	Modifying user name:	trannguyen
#	Modification time:	Wed Dec  7 14:36:19 2022

@<TRIPOS>MOLECULE
ZINC14943132
 50 55 0 0 0
SMALL
GASTEIGER

@<TRIPOS>ATOM
      1 C          19.2851  -24.8826   14.0013 C.3     1  UNL1        0.1418
      2 C          19.6448  -25.9621   15.0024 C.2     1  UNL1        0.1764
      3 O          20.0717  -27.0747   14.7646 O.2     1  UNL1       -0.2937
      4 C          19.3767  -25.3999   16.2635 C.3     1  UNL1        0.1078
      5 C          18.9135  -24.1422   16.1304 C.2     1  UNL1        0.0746
      6 N          18.8280  -23.7567   14.8307 N.2     1  UNL1       -0.2695
      7 C          19.5811  -26.1057   17.5793 C.3     1  UNL1        0.0751
      8 C          18.4695  -25.7514   18.5436 C.ar    1  UNL1       -0.0220
      9 C          17.1673  -26.2166   18.6222 C.ar    1  UNL1       -0.0044
     10 C          16.3178  -25.7421   19.6022 C.ar    1  UNL1       -0.0003
     11 C          16.7676  -24.7995   20.5080 C.ar    1  UNL1       -0.0003
     12 C          18.0657  -24.3345   20.4314 C.ar    1  UNL1       -0.0045
     13 C          18.9191  -24.8090   19.4492 C.ar    1  UNL1       -0.0224
     14 C          20.3637  -24.4654   19.1554 C.3     1  UNL1        0.0700
     15 C          20.8766  -25.6108   18.2569 C.3     1  UNL1        0.1794
     16 O          21.4763  -26.6645   19.0558 O.3     1  UNL1       -0.4379
     17 C          21.7842  -27.8119   18.4222 C.2     1  UNL1        0.3984
     18 O          21.2450  -28.8504   18.7499 O.2     1  UNL1       -0.2267
     19 N          22.6905  -27.8087   17.4246 N.am    1  UNL1       -0.2950
     20 H          23.1273  -26.9673   17.1592 H       1  UNL1        0.1482
     21 H          22.9157  -28.6477   16.9614 H       1  UNL1        0.1482
     22 C          20.5135  -24.4806   13.1824 C.3     1  UNL1        0.0608
     23 C          20.6348  -22.9556   13.1599 C.3     1  UNL1        0.1310
     24 O          20.3891  -22.4777   11.8359 O.3     1  UNL1       -0.3827
     25 H          21.0390  -22.8627   11.2274 H       1  UNL1        0.2104
     26 C          22.0442  -22.5495   13.5954 C.3     1  UNL1        0.1059
     27 N          23.0193  -23.0540   12.6254 N.am    1  UNL1       -0.2696
     28 C          23.9460  -23.9547   13.0078 C.2     1  UNL1        0.4016
     29 O          23.9729  -24.3483   14.1570 O.2     1  UNL1       -0.2264
     30 H          22.9976  -22.7351   11.6942 H       1  UNL1        0.1528
     31 O          24.8423  -24.4184   12.1162 O.3     1  UNL1       -0.4357
     32 C          24.6669  -25.7838   11.6546 C.3     1  UNL1        0.2024
     33 C          24.9800  -25.8988   10.1378 C.3     1  UNL1        0.0784
     34 C          25.4384  -27.3759   10.0433 C.3     1  UNL1        0.1461
     35 O          26.1614  -27.6228   11.2597 O.3     1  UNL1       -0.3498
     36 C          25.7273  -26.7155   12.2796 C.3     1  UNL1        0.1856
     37 C          22.1367  -21.0240   13.6652 C.3     1  UNL1        0.0485
     38 C          20.0988  -19.6316   17.1517 C.ar    1  UNL1       -0.0000
     39 C          20.5346  -20.9416   17.0828 C.ar    1  UNL1       -0.0003
     40 C          21.1944  -21.3921   15.9546 C.ar    1  UNL1       -0.0042
     41 C          21.4176  -20.5328   14.8951 C.ar    1  UNL1       -0.0204
     42 C          20.9860  -19.2215   14.9659 C.ar    1  UNL1       -0.0042
     43 C          20.3224  -18.7721   16.0923 C.ar    1  UNL1       -0.0003
     44 C          18.1612  -25.3598   13.0794 C.3     1  UNL1        0.0559
     45 C          16.8566  -25.3551   13.8337 C.ar    1  UNL1       -0.0199
     46 C          16.4605  -26.4776   14.5365 C.ar    1  UNL1       -0.0042
     47 C          15.2665  -26.4712   15.2332 C.ar    1  UNL1       -0.0003
     48 C          14.4661  -25.3443   15.2226 C.ar    1  UNL1       -0.0000
     49 C          14.8594  -24.2238   14.5150 C.ar    1  UNL1       -0.0003
     50 C          16.0534  -24.2301   13.8184 C.ar    1  UNL1       -0.0042
@<TRIPOS>BOND
     1    38    43   ar
     2    38    39   ar
     3    39    40   ar
     4    40    41   ar
     5    41    42   ar
     6    41    37    1
     7    42    43   ar
     8    37    26    1
     9    26    23    1
    10    26    27    1
    11    23    22    1
    12    23    24    1
    13    22     1    1
    14     1     2    1
    15     1    44    1
    16     1     6    1
    17     2     3    2
    18     2     4    1
    19     4     7    1
    20     4     5    1
    21     5     6    2
    22     7    15    1
    23     7     8    1
    24     8    13   ar
    25     8     9   ar
    26     9    10   ar
    27    10    11   ar
    28    11    12   ar
    29    12    13   ar
    30    13    14    1
    31    14    15    1
    32    15    16    1
    33    16    17    1
    34    17    18    2
    35    17    19   am
    36    44    45    1
    37    45    50   ar
    38    45    46   ar
    39    46    47   ar
    40    47    48   ar
    41    48    49   ar
    42    49    50   ar
    43    27    28   am
    44    28    29    2
    45    28    31    1
    46    31    32    1
    47    32    36    1
    48    32    33    1
    49    33    34    1
    50    34    35    1
    51    35    36    1
    52    19    20    1
    53    19    21    1
    54    24    25    1
    55    27    30    1
#	Name:			ZINC14943513
#	Creating user name:	trannguyen
#	Creation time:		Wed Dec  7 14:36:20 2022


#	Modifying user name:	trannguyen
#	Modification time:	Wed Dec  7 14:36:20 2022

@<TRIPOS>MOLECULE
ZINC14943513
 50 54 0 0 0
SMALL
GASTEIGER

@<TRIPOS>ATOM
      1 C          18.6454  -23.0863   13.1388 C.ar    1  UNL1       -0.0170
      2 C          18.6725  -23.0802   11.7561 C.ar    1  UNL1       -0.0039
      3 C          17.6226  -23.6229   11.0387 C.ar    1  UNL1        0.0010
      4 C          16.5450  -24.1775   11.7016 C.ar    1  UNL1        0.0147
      5 C          16.5121  -24.1800   13.0896 C.ar    1  UNL1        0.0500
      6 C          17.5686  -23.6344   13.8073 C.ar    1  UNL1        0.0107
      7 N          15.4195  -24.7362   13.7640 N.am    1  UNL1       -0.2826
      8 C          15.5733  -25.8701   14.4763 C.2     1  UNL1        0.2445
      9 O          16.6336  -26.4586   14.4580 O.2     1  UNL1       -0.2730
     10 H          14.5384  -24.2993   13.7183 H       1  UNL1        0.1549
     11 C          14.4277  -26.4066   15.2953 C.3     1  UNL1        0.1596
     12 N          13.2856  -26.6777   14.4189 N.am    1  UNL1       -0.2636
     13 C          12.0295  -26.5634   14.8939 C.2     1  UNL1        0.4017
     14 O          11.8444  -26.2356   16.0492 O.2     1  UNL1       -0.2264
     15 H          13.4355  -26.9435   13.4829 H       1  UNL1        0.1532
     16 O          10.9799  -26.8126   14.0884 O.3     1  UNL1       -0.4419
     17 C          10.5486  -28.1945   13.9762 C.3     1  UNL1        0.1378
     18 C           9.5978  -28.3371   12.7861 C.3     1  UNL1        0.0437
     19 C          11.7683  -29.0939   13.7651 C.3     1  UNL1        0.0437
     20 C           9.8253  -28.6088   15.2592 C.3     1  UNL1        0.0437
     21 C          14.8581  -27.7014   15.9875 C.3     1  UNL1        0.1021
     22 C          14.7653  -27.5273   17.4815 C.ar    1  UNL1        0.1651
     23 C          15.7979  -27.3122   18.3188 C.ar    1  UNL1        0.2203
     24 N          15.2719  -27.2103   19.5784 N.ar    1  UNL1       -0.2270
     25 C          13.9362  -27.3760   19.4680 C.ar    1  UNL1        0.3715
     26 N          13.6405  -27.5652   18.2111 N.ar    1  UNL1       -0.2329
     27 H          15.7736  -27.0468   20.4095 H       1  UNL1        0.3117
     28 H          12.7347  -27.7125   17.8546 H       1  UNL1        0.3113
     29 C          19.7920  -22.4937   13.9167 C.3     1  UNL1        0.0497
     30 C          20.6537  -24.9320   17.2929 C.ar    1  UNL1        0.1249
     31 C          20.7235  -25.4840   16.0669 C.ar    1  UNL1        0.0164
     32 C          20.4426  -24.6984   14.9267 C.ar    1  UNL1       -0.0861
     33 C          20.1001  -23.3702   15.1033 C.ar    1  UNL1        0.0422
     34 C          20.0501  -22.8523   16.4034 C.ar    1  UNL1        0.3405
     35 O          19.7554  -21.6818   16.5815 O.2     1  UNL1       -0.2449
     36 O          20.3209  -23.6434   17.4557 O.2     1  UNL1       -0.4257
     37 O          20.5079  -25.2352   13.6855 O.co2   1  UNL1       -0.8729
     38 C          20.9555  -25.7773   18.5034 C.3     1  UNL1        0.0619
     39 C          18.8379  -25.7593   19.8292 C.3     1  UNL1        0.0005
     40 C          20.2525  -25.1856   19.7268 C.3     1  UNL1        0.0079
     41 C          20.4542  -27.2034   18.2674 C.3     1  UNL1        0.0339
     42 C          21.5422  -28.1836   18.6233 C.ar    1  UNL1       -0.0218
     43 C          22.0279  -28.2376   19.9164 C.ar    1  UNL1       -0.0043
     44 C          23.0225  -29.1400   20.2440 C.ar    1  UNL1       -0.0003
     45 C          23.5388  -29.9811   19.2761 C.ar    1  UNL1       -0.0000
     46 C          23.0568  -29.9235   17.9817 C.ar    1  UNL1       -0.0003
     47 C          22.0585  -29.0247   17.6554 C.ar    1  UNL1       -0.0043
     48 C          21.0257  -22.4019   13.0166 C.3     1  UNL1        0.0083
     49 C          22.3528  -22.0174   13.6738 C.3     1  UNL1        0.0007
     50 C          21.6241  -21.0142   12.7775 C.3     1  UNL1        0.0007
@<TRIPOS>UNITY_ATOM_ATTR
26 1
charge 1
37 1
charge -1
@<TRIPOS>BOND
     1    39    40    1
     2    40    38    1
     3    38    41    1
     4    38    30    1
     5    41    42    1
     6    42    47   ar
     7    42    43   ar
     8    43    44   ar
     9    44    45   ar
    10    45    46   ar
    11    46    47   ar
    12    30    36   ar
    13    30    31   ar
    14    31    32   ar
    15    32    33   ar
    16    32    37    1
    17    33    34   ar
    18    33    29    1
    19    34    35    2
    20    34    36   ar
    21    29     1    1
    22    29    48    1
    23     1     6   ar
    24     1     2   ar
    25     2     3   ar
    26     3     4   ar
    27     4     5   ar
    28     5     6   ar
    29     5     7    1
    30     7     8   am
    31     8     9    2
    32     8    11    1
    33    11    21    1
    34    11    12    1
    35    21    22    1
    36    22    26   ar
    37    22    23   ar
    38    23    24   ar
    39    24    25   ar
    40    25    26   ar
    41    12    13   am
    42    13    14    2
    43    13    16    1
    44    16    17    1
    45    17    18    1
    46    17    19    1
    47    17    20    1
    48    48    50    1
    49    48    49    1
    50    49    50    1
    51     7    10    1
    52    24    27    1
    53    26    28    1
    54    12    15    1
#	Name:			ZINC14943516
#	Creating user name:	trannguyen
#	Creation time:		Wed Dec  7 14:36:19 2022


#	Modifying user name:	trannguyen
#	Modification time:	Wed Dec  7 14:36:19 2022

@<TRIPOS>MOLECULE
ZINC14943516
 50 54 0 0 0
SMALL
GASTEIGER

@<TRIPOS>ATOM
      1 C          18.1353  -26.8236   19.2332 C.ar    1  UNL1       -0.0170
      2 C          17.4385  -27.2194   20.3605 C.ar    1  UNL1       -0.0039
      3 C          16.0626  -27.3483   20.3166 C.ar    1  UNL1        0.0010
      4 C          15.3795  -27.0821   19.1459 C.ar    1  UNL1        0.0147
      5 C          16.0761  -26.6846   18.0124 C.ar    1  UNL1        0.0500
      6 C          17.4588  -26.5609   18.0585 C.ar    1  UNL1        0.0107
      7 N          15.3871  -26.4148   16.8248 N.am    1  UNL1       -0.2826
      8 C          15.0895  -27.4181   15.9755 C.2     1  UNL1        0.2445
      9 O          15.4549  -28.5484   16.2205 O.2     1  UNL1       -0.2730
     10 H          15.1199  -25.4920   16.6096 H       1  UNL1        0.1549
     11 C          14.2974  -27.1365   14.7248 C.3     1  UNL1        0.1596
     12 N          15.1989  -26.6599   13.6729 N.am    1  UNL1       -0.2636
     13 C          15.3934  -25.3375   13.5001 C.2     1  UNL1        0.4017
     14 O          14.8210  -24.5405   14.2169 O.2     1  UNL1       -0.2264
     15 H          15.6626  -27.3056   13.0921 H       1  UNL1        0.1532
     16 O          16.2218  -24.8994   12.5335 O.3     1  UNL1       -0.4419
     17 C          17.5272  -24.4202   12.9512 C.3     1  UNL1        0.1378
     18 C          17.8190  -24.9082   14.3716 C.3     1  UNL1        0.0437
     19 C          18.5966  -24.9569   11.9976 C.3     1  UNL1        0.0437
     20 C          17.5414  -22.8905   12.9245 C.3     1  UNL1        0.0437
     21 C          13.6046  -28.4191   14.2602 C.3     1  UNL1        0.1021
     22 C          12.1961  -28.1012   13.8289 C.ar    1  UNL1        0.1651
     23 C          11.4801  -27.0220   14.1976 C.ar    1  UNL1        0.2203
     24 N          10.2632  -27.1239   13.5793 N.ar    1  UNL1       -0.2270
     25 C          10.2746  -28.2673   12.8611 C.ar    1  UNL1        0.3715
     26 N          11.4338  -28.8466   13.0150 N.ar    1  UNL1       -0.2329
     27 H           9.5186  -26.4832   13.6458 H       1  UNL1        0.3117
     28 H          11.7058  -29.6966   12.5994 H       1  UNL1        0.3113
     29 C          19.6348  -26.6846   19.2856 C.3     1  UNL1        0.0497
     30 C          20.9195  -23.9730   16.2717 C.ar    1  UNL1        0.1249
     31 C          20.4494  -23.4715   17.4293 C.ar    1  UNL1        0.0164
     32 C          20.0155  -24.3480   18.4488 C.ar    1  UNL1       -0.0861
     33 C          20.0863  -25.7113   18.2271 C.ar    1  UNL1        0.0422
     34 C          20.5903  -26.1719   17.0045 C.ar    1  UNL1        0.3405
     35 O          20.6667  -27.3705   16.7903 O.2     1  UNL1       -0.2449
     36 O          20.9851  -25.2960   16.0645 O.2     1  UNL1       -0.4257
     37 O          19.5399  -23.8630   19.6199 O.co2   1  UNL1       -0.8729
     38 C          21.3807  -23.0306   15.1899 C.3     1  UNL1        0.0619
     39 C          23.1671  -23.5870   13.5341 C.3     1  UNL1        0.0005
     40 C          21.7075  -23.8271   13.9250 C.3     1  UNL1        0.0079
     41 C          20.2714  -22.0220   14.8852 C.3     1  UNL1        0.0339
     42 C          20.8818  -20.6722   14.6087 C.ar    1  UNL1       -0.0218
     43 C          21.4319  -19.9377   15.6425 C.ar    1  UNL1       -0.0043
     44 C          21.9962  -18.7016   15.3882 C.ar    1  UNL1       -0.0003
     45 C          22.0009  -18.1955   14.1019 C.ar    1  UNL1       -0.0000
     46 C          21.4461  -18.9277   13.0690 C.ar    1  UNL1       -0.0003
     47 C          20.8866  -20.1660   13.3224 C.ar    1  UNL1       -0.0043
     48 C          20.2826  -28.0478   19.0346 C.3     1  UNL1        0.0083
     49 C          20.2301  -29.0743   20.1679 C.3     1  UNL1        0.0007
     50 C          21.5512  -28.3828   19.8217 C.3     1  UNL1        0.0007
@<TRIPOS>UNITY_ATOM_ATTR
26 1
charge 1
37 1
charge -1
@<TRIPOS>BOND
     1    39    40    1
     2    40    38    1
     3    38    41    1
     4    38    30    1
     5    41    42    1
     6    42    47   ar
     7    42    43   ar
     8    43    44   ar
     9    44    45   ar
    10    45    46   ar
    11    46    47   ar
    12    30    36   ar
    13    30    31   ar
    14    31    32   ar
    15    32    33   ar
    16    32    37    1
    17    33    34   ar
    18    33    29    1
    19    34    35    2
    20    34    36   ar
    21    29     1    1
    22    29    48    1
    23     1     6   ar
    24     1     2   ar
    25     2     3   ar
    26     3     4   ar
    27     4     5   ar
    28     5     6   ar
    29     5     7    1
    30     7     8   am
    31     8     9    2
    32     8    11    1
    33    11    21    1
    34    11    12    1
    35    21    22    1
    36    22    26   ar
    37    22    23   ar
    38    23    24   ar
    39    24    25   ar
    40    25    26   ar
    41    12    13   am
    42    13    14    2
    43    13    16    1
    44    16    17    1
    45    17    18    1
    46    17    19    1
    47    17    20    1
    48    48    50    1
    49    48    49    1
    50    49    50    1
    51     7    10    1
    52    24    27    1
    53    26    28    1
    54    12    15    1
#	Name:			ZINC14943519
#	Creating user name:	trannguyen
#	Creation time:		Wed Dec  7 14:36:20 2022


#	Modifying user name:	trannguyen
#	Modification time:	Wed Dec  7 14:36:20 2022

@<TRIPOS>MOLECULE
ZINC14943519
 50 54 0 0 0
SMALL
GASTEIGER

@<TRIPOS>ATOM
      1 C          20.0426  -27.0827   18.3771 C.ar    1  UNL1       -0.0170
      2 C          20.3961  -26.9547   19.7081 C.ar    1  UNL1       -0.0039
      3 C          21.0469  -25.8166   20.1471 C.ar    1  UNL1        0.0010
      4 C          21.3367  -24.7989   19.2592 C.ar    1  UNL1        0.0147
      5 C          20.9784  -24.9222   17.9234 C.ar    1  UNL1        0.0500
      6 C          20.3294  -26.0690   17.4845 C.ar    1  UNL1        0.0107
      7 N          21.2708  -23.8933   17.0213 N.am    1  UNL1       -0.2826
      8 C          20.3749  -22.9093   16.8077 C.2     1  UNL1        0.2445
      9 O          19.3540  -22.8665   17.4611 O.2     1  UNL1       -0.2730
     10 H          22.1311  -23.8881   16.5425 H       1  UNL1        0.1549
     11 C          20.6417  -21.8624   15.7571 C.3     1  UNL1        0.1596
     12 N          19.8099  -22.1281   14.5807 N.am    1  UNL1       -0.2636
     13 C          20.2609  -22.9434   13.6069 C.2     1  UNL1        0.4017
     14 O          21.3573  -23.4581   13.7046 O.2     1  UNL1       -0.2264
     15 H          18.9216  -21.7112   14.5015 H       1  UNL1        0.1532
     16 O          19.4966  -23.1877   12.5258 O.3     1  UNL1       -0.4419
     17 C          18.3709  -24.0875   12.7040 C.3     1  UNL1        0.1378
     18 C          17.0648  -23.3155   12.5069 C.3     1  UNL1        0.0437
     19 C          18.4547  -25.2186   11.6771 C.3     1  UNL1        0.0437
     20 C          18.4072  -24.6764   14.1156 C.3     1  UNL1        0.0437
     21 C          20.3046  -20.4794   16.3181 C.3     1  UNL1        0.1021
     22 C          21.2080  -19.4490   15.6908 C.ar    1  UNL1        0.1651
     23 C          21.2991  -19.1719   14.3762 C.ar    1  UNL1        0.2203
     24 N          22.2296  -18.1767   14.2448 N.ar    1  UNL1       -0.2270
     25 C          22.6817  -17.8865   15.4838 C.ar    1  UNL1        0.3715
     26 N          22.0662  -18.6514   16.3435 N.ar    1  UNL1       -0.2329
     27 H          22.5159  -17.7519   13.4041 H       1  UNL1        0.3117
     28 H          22.2094  -18.6441   17.3175 H       1  UNL1        0.3113
     29 C          19.3381  -28.3273   17.9020 C.3     1  UNL1        0.0497
     30 C          15.7710  -27.2548   15.8499 C.ar    1  UNL1        0.1249
     31 C          15.8416  -27.0314   17.1756 C.ar    1  UNL1        0.0164
     32 C          17.0125  -27.3811   17.8847 C.ar    1  UNL1       -0.0861
     33 C          18.0670  -27.9438   17.1890 C.ar    1  UNL1        0.0422
     34 C          17.9310  -28.1568   15.8116 C.ar    1  UNL1        0.3405
     35 O          18.8469  -28.6570   15.1796 O.2     1  UNL1       -0.2449
     36 O          16.7955  -27.8065   15.1836 O.2     1  UNL1       -0.4257
     37 O          17.1026  -27.1643   19.2180 O.co2   1  UNL1       -0.8729
     38 C          14.5181  -26.8787   15.1016 C.3     1  UNL1        0.0619
     39 C          14.6646  -24.3848   15.0578 C.3     1  UNL1        0.0005
     40 C          14.7968  -25.6589   14.2210 C.3     1  UNL1        0.0079
     41 C          13.4086  -26.5438   16.1004 C.3     1  UNL1        0.0339
     42 C          12.1486  -27.2756   15.7156 C.ar    1  UNL1       -0.0218
     43 C          11.6352  -27.1434   14.4389 C.ar    1  UNL1       -0.0043
     44 C          10.4821  -27.8185   14.0844 C.ar    1  UNL1       -0.0003
     45 C           9.8367  -28.6174   15.0098 C.ar    1  UNL1       -0.0000
     46 C          10.3472  -28.7452   16.2880 C.ar    1  UNL1       -0.0003
     47 C          11.5033  -28.0744   16.6408 C.ar    1  UNL1       -0.0043
     48 C          19.0018  -29.2131   19.1033 C.3     1  UNL1        0.0083
     49 C          19.8218  -30.4912   19.2901 C.3     1  UNL1        0.0007
     50 C          18.3676  -30.5764   18.8201 C.3     1  UNL1        0.0007
@<TRIPOS>UNITY_ATOM_ATTR
26 1
charge 1
37 1
charge -1
@<TRIPOS>BOND
     1    39    40    1
     2    40    38    1
     3    38    41    1
     4    38    30    1
     5    41    42    1
     6    42    47   ar
     7    42    43   ar
     8    43    44   ar
     9    44    45   ar
    10    45    46   ar
    11    46    47   ar
    12    30    36   ar
    13    30    31   ar
    14    31    32   ar
    15    32    33   ar
    16    32    37    1
    17    33    34   ar
    18    33    29    1
    19    34    35    2
    20    34    36   ar
    21    29     1    1
    22    29    48    1
    23     1     6   ar
    24     1     2   ar
    25     2     3   ar
    26     3     4   ar
    27     4     5   ar
    28     5     6   ar
    29     5     7    1
    30     7     8   am
    31     8     9    2
    32     8    11    1
    33    11    21    1
    34    11    12    1
    35    21    22    1
    36    22    26   ar
    37    22    23   ar
    38    23    24   ar
    39    24    25   ar
    40    25    26   ar
    41    12    13   am
    42    13    14    2
    43    13    16    1
    44    16    17    1
    45    17    18    1
    46    17    19    1
    47    17    20    1
    48    48    50    1
    49    48    49    1
    50    49    50    1
    51     7    10    1
    52    24    27    1
    53    26    28    1
    54    12    15    1
#	Name:			ZINC14944100
#	Creating user name:	trannguyen
#	Creation time:		Wed Dec  7 14:36:19 2022


#	Modifying user name:	trannguyen
#	Modification time:	Wed Dec  7 14:36:19 2022

@<TRIPOS>MOLECULE
ZINC14944100
 49 52 0 0 0
SMALL
GASTEIGER

@<TRIPOS>ATOM
      1 C          16.6000  -25.0411   13.5703 C.2     1  UNL1        0.3415
      2 O          16.1229  -25.0581   12.4537 O.2     1  UNL1       -0.2449
      3 C          17.8339  -24.2687   13.8360 C.ar    1  UNL1        0.0817
      4 C          18.0843  -23.0929   13.1281 C.ar    1  UNL1        0.0434
      5 C          19.2368  -22.3671   13.3738 C.ar    1  UNL1        0.1398
      6 C          20.1541  -22.8157   14.3359 C.ar    1  UNL1        0.1063
      7 C          19.8980  -23.9985   15.0458 C.ar    1  UNL1        0.1398
      8 C          18.7430  -24.7180   14.7938 C.ar    1  UNL1        0.0434
      9 O          20.7813  -24.4362   15.9779 O.3     1  UNL1       -0.5053
     10 O          19.4819  -21.2266   12.6812 O.3     1  UNL1       -0.5053
     11 H          21.5631  -23.9484   16.1480 H       1  UNL1        0.2922
     12 H          18.8688  -20.9276   12.0388 H       1  UNL1        0.2922
     13 C          21.3829  -22.0464   14.6006 C.2     1  UNL1        0.2044
     14 O          22.4702  -22.5807   14.4919 O.2     1  UNL1       -0.2863
     15 C          21.2943  -20.6281   14.9976 C.ar    1  UNL1        0.0739
     16 C          20.8430  -20.2782   16.2865 C.ar    1  UNL1        0.0200
     17 C          20.7703  -18.9377   16.6494 C.ar    1  UNL1        0.0014
     18 C          21.1282  -17.9522   15.7454 C.ar    1  UNL1        0.0031
     19 C          21.5653  -18.2871   14.4795 C.ar    1  UNL1        0.0367
     20 C          21.6521  -19.6202   14.0962 C.ar    1  UNL1        0.1367
     21 O          22.0831  -19.9429   12.8513 O.3     1  UNL1       -0.5054
     22 H          22.1411  -20.8421   12.5940 H       1  UNL1        0.2922
     23 C          20.4552  -21.3306   17.2490 C.2     1  UNL1        0.0731
     24 O          19.2877  -21.4783   17.5498 O.co2   1  UNL1       -0.5446
     25 O          21.3967  -22.1259   17.7929 O.co2   1  UNL1       -0.5446
     26 O          16.0062  -25.7253   14.5668 O.3     1  UNL1       -0.4438
     27 C          14.7876  -26.4433   14.2385 C.3     1  UNL1        0.2298
     28 C          14.5023  -27.4856   15.3217 C.3     1  UNL1        0.1626
     29 N          13.5273  -26.9468   16.2732 N.3     1  UNL1       -0.1734
     30 H          14.0311  -26.7694   17.1422 H       1  UNL1        0.1490
     31 S          12.1837  -27.8294   16.6710 S.O2    1  UNL1        0.0604
     32 O          12.6501  -29.0376   17.2559 O.2     1  UNL1       -0.1530
     33 O          11.3030  -26.9446   17.3498 O.2     1  UNL1       -0.1530
     34 C          10.1385  -28.9722   12.7978 C.ar    1  UNL1        0.0001
     35 C          10.2571  -27.6408   13.1501 C.ar    1  UNL1        0.0014
     36 C          10.8814  -27.2917   14.3331 C.ar    1  UNL1        0.0199
     37 C          11.3875  -28.2742   15.1635 C.ar    1  UNL1        0.1219
     38 C          11.2739  -29.6053   14.8084 C.ar    1  UNL1        0.0199
     39 C          10.6445  -29.9547   13.6283 C.ar    1  UNL1        0.0014
     40 C          15.8000  -27.8244   16.0580 C.3     1  UNL1        0.2264
     41 O          15.7444  -27.3009   17.3866 O.3     1  UNL1       -0.4738
     42 C          16.7940  -26.5383   17.7941 C.ar    1  UNL1        0.1388
     43 C          18.0451  -27.1130   17.9613 C.ar    1  UNL1        0.0400
     44 C          19.1122  -26.3375   18.3710 C.ar    1  UNL1        0.0397
     45 C          18.9304  -24.9861   18.6244 C.ar    1  UNL1        0.1339
     46 C          17.6781  -24.4124   18.4618 C.ar    1  UNL1        0.0397
     47 C          16.6120  -25.1870   18.0479 C.ar    1  UNL1        0.0400
     48 O          19.9800  -24.2235   19.0319 O.3     1  UNL1       -0.5055
     49 H          20.8259  -24.6111   19.1418 H       1  UNL1        0.2922
@<TRIPOS>UNITY_ATOM_ATTR
25 1
charge -1
@<TRIPOS>BOND
     1    34    39   ar
     2    34    35   ar
     3    35    36   ar
     4    36    37   ar
     5    37    38   ar
     6    37    31    1
     7    38    39   ar
     8    31    32    2
     9    31    33    2
    10    31    29    1
    11    29    28    1
    12    28    40    1
    13    28    27    1
    14    40    41    1
    15    41    42    1
    16    42    47   ar
    17    42    43   ar
    18    43    44   ar
    19    44    45   ar
    20    45    46   ar
    21    45    48    1
    22    46    47   ar
    23    27    26    1
    24    26     1    1
    25     1     2    2
    26     1     3    1
    27     3     8   ar
    28     3     4   ar
    29     4     5   ar
    30     5     6   ar
    31     5    10    1
    32     6     7   ar
    33     6    13    1
    34     7     8   ar
    35     7     9    1
    36    13    14    2
    37    13    15    1
    38    15    20   ar
    39    15    16   ar
    40    16    17   ar
    41    16    23    1
    42    17    18   ar
    43    18    19   ar
    44    19    20   ar
    45    20    21    1
    46    23    24   ar
    47    23    25   ar
    48    29    30    1
    49    48    49    1
    50     9    11    1
    51    21    22    1
    52    10    12    1
#	Name:			ZINC14944102
#	Creating user name:	trannguyen
#	Creation time:		Wed Dec  7 14:36:19 2022


#	Modifying user name:	trannguyen
#	Modification time:	Wed Dec  7 14:36:19 2022

@<TRIPOS>MOLECULE
ZINC14944102
 49 52 0 0 0
SMALL
GASTEIGER

@<TRIPOS>ATOM
      1 C          24.2717  -24.0224   12.7053 C.2     1  UNL1        0.3415
      2 O          24.5684  -22.9281   12.2704 O.2     1  UNL1       -0.2449
      3 C          24.3640  -25.2147   11.8337 C.ar    1  UNL1        0.0817
      4 C          23.7018  -26.3896   12.1903 C.ar    1  UNL1        0.0434
      5 C          23.7807  -27.5053   11.3752 C.ar    1  UNL1        0.1398
      6 C          24.5371  -27.4569   10.1945 C.ar    1  UNL1        0.1063
      7 C          25.2061  -26.2749    9.8428 C.ar    1  UNL1        0.1398
      8 C          25.1174  -25.1622   10.6610 C.ar    1  UNL1        0.0434
      9 O          25.9392  -26.2227    8.7023 O.3     1  UNL1       -0.5053
     10 O          23.1314  -28.6457   11.7198 O.3     1  UNL1       -0.5053
     11 H          25.9988  -26.9764    8.1488 H       1  UNL1        0.2922
     12 H          22.6265  -28.6773   12.5085 H       1  UNL1        0.2922
     13 C          24.6282  -28.6440    9.3260 C.2     1  UNL1        0.2044
     14 O          24.5493  -28.5217    8.1185 O.2     1  UNL1       -0.2863
     15 C          24.8151  -29.9810    9.9214 C.ar    1  UNL1        0.0739
     16 C          26.0014  -30.2888   10.6181 C.ar    1  UNL1        0.0200
     17 C          26.1619  -31.5513   11.1787 C.ar    1  UNL1        0.0014
     18 C          25.1665  -32.5039   11.0436 C.ar    1  UNL1        0.0031
     19 C          24.0046  -32.2115   10.3579 C.ar    1  UNL1        0.0367
     20 C          23.8191  -30.9549    9.7940 C.ar    1  UNL1        0.1367
     21 O          22.6749  -30.6733    9.1222 O.3     1  UNL1       -0.5054
     22 H          22.5510  -29.8257    8.7425 H       1  UNL1        0.2922
     23 C          27.0662  -29.2732   10.7571 C.2     1  UNL1        0.0731
     24 O          27.9539  -29.2071    9.9309 O.co2   1  UNL1       -0.5446
     25 O          27.0518  -28.4208   11.8002 O.co2   1  UNL1       -0.5446
     26 O          23.8586  -24.1509   13.9808 O.3     1  UNL1       -0.4438
     27 C          22.7817  -23.2795   14.4159 C.3     1  UNL1        0.2298
     28 C          21.5056  -23.6216   13.6443 C.3     1  UNL1        0.1626
     29 N          20.5676  -24.3116   14.5334 N.3     1  UNL1       -0.1734
     30 H          21.1204  -24.7106   15.2921 H       1  UNL1        0.1490
     31 S          19.6134  -25.5305   13.9450 S.O2    1  UNL1        0.0604
     32 O          19.0529  -26.1881   15.0731 O.2     1  UNL1       -0.1530
     33 O          20.3862  -26.2163   12.9694 O.2     1  UNL1       -0.1530
     34 C          16.1714  -23.5885   11.7377 C.ar    1  UNL1        0.0001
     35 C          16.1748  -23.6227   13.1196 C.ar    1  UNL1        0.0014
     36 C          17.2260  -24.2158   13.7937 C.ar    1  UNL1        0.0199
     37 C          18.2737  -24.7745   13.0858 C.ar    1  UNL1        0.1219
     38 C          18.2700  -24.7406   11.7038 C.ar    1  UNL1        0.0199
     39 C          17.2189  -24.1476   11.0298 C.ar    1  UNL1        0.0014
     40 C          20.8628  -22.3338   13.1254 C.3     1  UNL1        0.2264
     41 O          20.0752  -21.7435   14.1614 O.3     1  UNL1       -0.4738
     42 C          20.5508  -20.6002   14.7233 C.ar    1  UNL1        0.1388
     43 C          21.1913  -19.6549   13.9359 C.ar    1  UNL1        0.0400
     44 C          21.6706  -18.4915   14.5059 C.ar    1  UNL1        0.0397
     45 C          21.5199  -18.2731   15.8673 C.ar    1  UNL1        0.1339
     46 C          20.8838  -19.2206   16.6554 C.ar    1  UNL1        0.0397
     47 C          20.4005  -20.3820   16.0847 C.ar    1  UNL1        0.0400
     48 O          21.9956  -17.1297   16.4291 O.3     1  UNL1       -0.5055
     49 H          22.4253  -16.4897   15.8966 H       1  UNL1        0.2922
@<TRIPOS>UNITY_ATOM_ATTR
25 1
charge -1
@<TRIPOS>BOND
     1    34    39   ar
     2    34    35   ar
     3    35    36   ar
     4    36    37   ar
     5    37    38   ar
     6    37    31    1
     7    38    39   ar
     8    31    32    2
     9    31    33    2
    10    31    29    1
    11    29    28    1
    12    28    40    1
    13    28    27    1
    14    40    41    1
    15    41    42    1
    16    42    47   ar
    17    42    43   ar
    18    43    44   ar
    19    44    45   ar
    20    45    46   ar
    21    45    48    1
    22    46    47   ar
    23    27    26    1
    24    26     1    1
    25     1     2    2
    26     1     3    1
    27     3     8   ar
    28     3     4   ar
    29     4     5   ar
    30     5     6   ar
    31     5    10    1
    32     6     7   ar
    33     6    13    1
    34     7     8   ar
    35     7     9    1
    36    13    14    2
    37    13    15    1
    38    15    20   ar
    39    15    16   ar
    40    16    17   ar
    41    16    23    1
    42    17    18   ar
    43    18    19   ar
    44    19    20   ar
    45    20    21    1
    46    23    24   ar
    47    23    25   ar
    48    29    30    1
    49    48    49    1
    50     9    11    1
    51    21    22    1
    52    10    12    1
#	Name:			ZINC14944841
#	Creating user name:	trannguyen
#	Creation time:		Wed Dec  7 14:36:19 2022


#	Modifying user name:	trannguyen
#	Modification time:	Wed Dec  7 14:36:19 2022

@<TRIPOS>MOLECULE
ZINC14944841
 47 51 0 0 0
SMALL
GASTEIGER

@<TRIPOS>ATOM
      1 C          21.5619  -22.9975   13.6194 C.3     1  UNL1        0.1517
      2 C          21.4545  -22.2561   14.9270 C.ar    1  UNL1        0.2542
      3 N          20.7885  -22.6393   15.9895 N.ar    1  UNL1       -0.1932
      4 C          20.9752  -21.6699   16.9030 C.ar    1  UNL1        0.1849
      5 N          21.7376  -20.7672   16.3620 N.ar    1  UNL1       -0.0602
      6 O          22.0242  -21.0849   15.2269 O.2     1  UNL1       -0.3356
      7 C          20.4096  -21.6393   18.2994 C.3     1  UNL1        0.0955
      8 C          19.9296  -23.0169   18.6773 C.ar    1  UNL1       -0.0145
      9 C          20.8456  -24.0642   18.7602 C.ar    1  UNL1       -0.0038
     10 C          20.4453  -25.3201   19.0987 C.ar    1  UNL1       -0.0003
     11 C          19.0887  -25.5683   19.3692 C.ar    1  UNL1       -0.0000
     12 C          18.6375  -26.8517   19.7220 C.ar    1  UNL1       -0.0000
     13 C          17.3154  -27.0554   19.9724 C.ar    1  UNL1       -0.0000
     14 C          16.4005  -26.0069   19.8957 C.ar    1  UNL1       -0.0000
     15 C          16.8009  -24.7511   19.5567 C.ar    1  UNL1       -0.0000
     16 C          18.1574  -24.5032   19.2853 C.ar    1  UNL1       -0.0003
     17 C          18.6084  -23.2198   18.9327 C.ar    1  UNL1       -0.0038
     18 C          21.5572  -25.3987   14.0330 C.2     1  UNL1        0.2410
     19 O          22.7544  -25.3397   14.2175 O.2     1  UNL1       -0.2733
     20 N          20.8665  -24.2823   13.7279 N.am    1  UNL1       -0.2968
     21 H          19.8947  -24.3303   13.5780 H       1  UNL1        0.1499
     22 C          20.8419  -26.7205   14.1447 C.3     1  UNL1        0.1529
     23 C          22.0369  -29.9774   12.5262 C.3     1  UNL1        0.0946
     24 C          21.1523  -28.8807   13.0611 C.2     1  UNL1        0.2233
     25 O          19.9463  -28.9826   12.9843 O.2     1  UNL1       -0.2751
     26 N          21.7017  -27.7866   13.6247 N.am    1  UNL1       -0.2981
     27 H          22.6807  -27.7038   13.6869 H       1  UNL1        0.1498
     28 C          20.5137  -27.0003   15.6126 C.3     1  UNL1        0.0553
     29 C          19.0371  -26.8068   15.8430 C.ar    1  UNL1       -0.0198
     30 C          18.2352  -27.8956   16.1316 C.ar    1  UNL1       -0.0011
     31 C          16.8822  -27.7202   16.3488 C.ar    1  UNL1        0.0368
     32 C          16.3264  -26.4517   16.2663 C.ar    1  UNL1        0.1401
     33 C          17.1322  -25.3617   15.9710 C.ar    1  UNL1        0.0368
     34 C          18.4855  -25.5417   15.7598 C.ar    1  UNL1       -0.0011
     35 O          14.9947  -26.2772   16.4740 O.3     1  UNL1       -0.4808
     36 P          14.1496  -26.0238   15.1274 P.3     1  UNL1        0.0441
     37 O          12.8432  -26.7122   15.2278 O.2     1  UNL1       -0.6291
     38 O          13.9100  -24.4436   14.9336 O.co2   1  UNL1       -0.5675
     39 O          14.9651  -26.6017   13.8652 O.co2   1  UNL1       -0.5675
     40 C          20.9228  -22.1642   12.5065 C.3     1  UNL1        0.0339
     41 C          19.5642  -21.6413   12.9771 C.3     1  UNL1        0.0286
     42 C          18.4764  -22.5686   12.5000 C.ar    1  UNL1       -0.0221
     43 C          18.6223  -23.2482   11.3051 C.ar    1  UNL1       -0.0043
     44 C          17.6268  -24.1030   10.8700 C.ar    1  UNL1       -0.0003
     45 C          16.4805  -24.2697   11.6244 C.ar    1  UNL1       -0.0000
     46 C          16.3320  -23.5858   12.8166 C.ar    1  UNL1       -0.0003
     47 C          17.3301  -22.7354   13.2544 C.ar    1  UNL1       -0.0043
@<TRIPOS>UNITY_ATOM_ATTR
38 1
charge -1
39 1
charge -1
@<TRIPOS>BOND
     1    23    24    1
     2    24    25    2
     3    24    26   am
     4    26    22    1
     5    22    28    1
     6    22    18    1
     7    28    29    1
     8    29    34   ar
     9    29    30   ar
    10    30    31   ar
    11    31    32   ar
    12    32    33   ar
    13    32    35    1
    14    33    34   ar
    15    35    36    1
    16    36    37    2
    17    36    38    1
    18    36    39    1
    19    18    19    2
    20    18    20   am
    21    20     1    1
    22     1    40    1
    23     1     2    1
    24    40    41    1
    25    41    42    1
    26    42    47   ar
    27    42    43   ar
    28    43    44   ar
    29    44    45   ar
    30    45    46   ar
    31    46    47   ar
    32     2     6   ar
    33     2     3   ar
    34     3     4   ar
    35     4     5   ar
    36     4     7    1
    37     5     6   ar
    38     7     8    1
    39     8    17   ar
    40     8     9   ar
    41     9    10   ar
    42    10    11   ar
    43    11    16   ar
    44    11    12   ar
    45    12    13   ar
    46    13    14   ar
    47    14    15   ar
    48    15    16   ar
    49    16    17   ar
    50    26    27    1
    51    20    21    1
#	Name:			ZINC14946117
#	Creating user name:	trannguyen
#	Creation time:		Wed Dec  7 14:36:19 2022


#	Modifying user name:	trannguyen
#	Modification time:	Wed Dec  7 14:36:19 2022

@<TRIPOS>MOLECULE
ZINC14946117
 48 53 0 0 0
SMALL
GASTEIGER

@<TRIPOS>ATOM
      1 C          18.8160  -24.9439   18.8246 C.3     1  UNL1        0.1418
      2 C          17.4746  -24.4050   18.3693 C.2     1  UNL1        0.1764
      3 O          16.7753  -23.5912   18.9402 O.2     1  UNL1       -0.2937
      4 C          17.2114  -25.0456   17.1486 C.3     1  UNL1        0.1079
      5 C          18.2162  -25.8842   16.8306 C.2     1  UNL1        0.0746
      6 N          19.2069  -25.8860   17.7641 N.2     1  UNL1       -0.2695
      7 C          15.9780  -24.8257   16.3111 C.3     1  UNL1        0.0769
      8 C          16.3544  -24.6911   14.8522 C.ar    1  UNL1       -0.0205
      9 C          17.3714  -23.9650   14.2534 C.ar    1  UNL1       -0.0044
     10 C          17.5276  -23.9886   12.8816 C.ar    1  UNL1       -0.0003
     11 C          16.6664  -24.7388   12.1025 C.ar    1  UNL1       -0.0003
     12 C          15.6532  -25.4637   12.6978 C.ar    1  UNL1       -0.0029
     13 C          15.4960  -25.4426   14.0747 C.ar    1  UNL1       -0.0047
     14 C          14.4797  -26.1463   14.9495 C.3     1  UNL1        0.1373
     15 C          15.0553  -26.0539   16.3914 C.3     1  UNL1        0.1971
     16 O          15.8531  -27.2710   16.4900 O.3     1  UNL1       -0.4360
     17 C          15.4379  -28.1313   15.5483 C.2     1  UNL1        0.4019
     18 O          15.8199  -29.2829   15.4834 O.2     1  UNL1       -0.2264
     19 N          14.5587  -27.5976   14.6845 N.am    1  UNL1       -0.2650
     20 H          14.0549  -28.0879   13.9953 H       1  UNL1        0.1531
     21 C          19.8379  -23.8110   18.9383 C.3     1  UNL1        0.0608
     22 C          21.0092  -24.0840   17.9924 C.3     1  UNL1        0.1310
     23 O          22.2407  -23.8913   18.6913 O.3     1  UNL1       -0.3827
     24 H          22.2906  -22.9773   19.0125 H       1  UNL1        0.2104
     25 C          20.9408  -23.1215   16.8050 C.3     1  UNL1        0.1059
     26 C          21.4342  -24.2327   14.6935 C.2     1  UNL1        0.4014
     27 O          22.6082  -23.9691   14.8628 O.2     1  UNL1       -0.2264
     28 N          20.5196  -23.8526   15.6074 N.am    1  UNL1       -0.2696
     29 H          19.5684  -24.0661   15.4702 H       1  UNL1        0.1528
     30 O          21.0470  -24.9045   13.5928 O.3     1  UNL1       -0.4419
     31 C          21.3804  -26.7859   15.1027 C.3     1  UNL1        0.0437
     32 C          21.0259  -26.3539   13.6785 C.3     1  UNL1        0.1378
     33 C          19.6285  -26.8655   13.3233 C.3     1  UNL1        0.0437
     34 C          22.0468  -26.9375   12.6995 C.3     1  UNL1        0.0437
     35 C          19.9319  -22.0113   17.1061 C.3     1  UNL1        0.0485
     36 C          20.4513  -20.7019   16.5705 C.ar    1  UNL1       -0.0204
     37 C          19.8889  -19.5113   16.9912 C.ar    1  UNL1       -0.0042
     38 C          20.3679  -18.3100   16.5028 C.ar    1  UNL1       -0.0003
     39 C          21.4038  -18.2998   15.5876 C.ar    1  UNL1       -0.0000
     40 C          21.9626  -19.4907   15.1629 C.ar    1  UNL1       -0.0003
     41 C          21.4863  -20.6918   15.6541 C.ar    1  UNL1       -0.0042
     42 C          18.6744  -25.6722   20.1626 C.3     1  UNL1        0.0559
     43 C          19.2821  -27.0469   20.0532 C.ar    1  UNL1       -0.0199
     44 C          18.4701  -28.1654   20.0760 C.ar    1  UNL1       -0.0042
     45 C          19.0274  -29.4264   19.9747 C.ar    1  UNL1       -0.0003
     46 C          20.3972  -29.5692   19.8566 C.ar    1  UNL1       -0.0000
     47 C          21.2090  -28.4505   19.8298 C.ar    1  UNL1       -0.0003
     48 C          20.6515  -27.1895   19.9296 C.ar    1  UNL1       -0.0042
@<TRIPOS>BOND
     1    31    32    1
     2    32    33    1
     3    32    34    1
     4    32    30    1
     5    30    26    1
     6    26    27    2
     7    26    28   am
     8    28    25    1
     9    25    35    1
    10    25    22    1
    11    35    36    1
    12    36    41   ar
    13    36    37   ar
    14    37    38   ar
    15    38    39   ar
    16    39    40   ar
    17    40    41   ar
    18    22    21    1
    19    22    23    1
    20    21     1    1
    21     1     2    1
    22     1    42    1
    23     1     6    1
    24     2     3    2
    25     2     4    1
    26     4     7    1
    27     4     5    1
    28     5     6    2
    29     7    15    1
    30     7     8    1
    31     8    13   ar
    32     8     9   ar
    33     9    10   ar
    34    10    11   ar
    35    11    12   ar
    36    12    13   ar
    37    13    14    1
    38    14    19    1
    39    14    15    1
    40    15    16    1
    41    16    17    1
    42    17    18    2
    43    17    19   am
    44    42    43    1
    45    43    48   ar
    46    43    44   ar
    47    44    45   ar
    48    45    46   ar
    49    46    47   ar
    50    47    48   ar
    51    28    29    1
    52    19    20    1
    53    23    24    1
#	Name:			ZINC14946120
#	Creating user name:	trannguyen
#	Creation time:		Wed Dec  7 14:36:19 2022


#	Modifying user name:	trannguyen
#	Modification time:	Wed Dec  7 14:36:19 2022

@<TRIPOS>MOLECULE
ZINC14946120
 48 53 0 0 0
SMALL
GASTEIGER

@<TRIPOS>ATOM
      1 C          20.2670  -25.6879   13.7348 C.3     1  UNL1        0.1418
      2 C          21.6871  -26.2110   13.6541 C.2     1  UNL1        0.1764
      3 O          22.6662  -25.7761   14.2280 O.2     1  UNL1       -0.2937
      4 C          21.6314  -27.3041   12.7755 C.3     1  UNL1        0.1079
      5 C          20.3737  -27.4858   12.3292 C.2     1  UNL1        0.0746
      6 N          19.5041  -26.5807   12.8485 N.2     1  UNL1       -0.2695
      7 C          22.8138  -28.1514   12.3817 C.3     1  UNL1        0.0769
      8 C          23.6827  -27.4170   11.3848 C.ar    1  UNL1       -0.0205
      9 C          24.5892  -26.3865   11.5757 C.ar    1  UNL1       -0.0044
     10 C          25.2695  -25.8512   10.4999 C.ar    1  UNL1       -0.0003
     11 C          25.0416  -26.3406    9.2272 C.ar    1  UNL1       -0.0003
     12 C          24.1359  -27.3650    9.0349 C.ar    1  UNL1       -0.0029
     13 C          23.4533  -27.9048   10.1137 C.ar    1  UNL1       -0.0047
     14 C          22.4310  -29.0209   10.1591 C.3     1  UNL1        0.1373
     15 C          22.3388  -29.4235   11.6587 C.3     1  UNL1        0.1971
     16 O          23.3528  -30.4664   11.7672 O.3     1  UNL1       -0.4360
     17 C          23.6140  -30.9376   10.5388 C.2     1  UNL1        0.4019
     18 O          24.3114  -31.9112   10.3334 O.2     1  UNL1       -0.2264
     19 N          23.0307  -30.2300    9.5576 N.am    1  UNL1       -0.2650
     20 H          23.0068  -30.4743    8.6042 H       1  UNL1        0.1531
     21 C          19.7426  -25.7806   15.1691 C.3     1  UNL1        0.0608
     22 C          20.4884  -24.7769   16.0507 C.3     1  UNL1        0.1309
     23 O          21.3091  -25.4810   16.9848 O.3     1  UNL1       -0.3827
     24 H          20.7525  -26.0485   17.5407 H       1  UNL1        0.2104
     25 C          19.4774  -23.9144   16.8090 C.3     1  UNL1        0.1027
     26 C          20.4093  -21.6652   16.7077 C.2     1  UNL1        0.2225
     27 O          21.2177  -21.9938   17.5500 O.2     1  UNL1       -0.2751
     28 N          19.4949  -22.5527   16.2687 N.am    1  UNL1       -0.3032
     29 H          18.8387  -22.2860   15.5850 H       1  UNL1        0.1495
     30 C          20.4272  -20.2645   16.1521 C.3     1  UNL1        0.0850
     31 C          21.8039  -18.8944   14.5806 C.3     1  UNL1        0.0005
     32 C          21.1505  -20.2597   14.8039 C.3     1  UNL1        0.0086
     33 C          22.2267  -21.3472   14.7986 C.3     1  UNL1        0.0005
     34 C          20.1440  -20.5328   13.6842 C.3     1  UNL1        0.0005
     35 C          18.0771  -24.5092   16.6476 C.3     1  UNL1        0.0484
     36 C          17.5014  -24.8147   18.0064 C.ar    1  UNL1       -0.0204
     37 C          17.7641  -23.9754   19.0730 C.ar    1  UNL1       -0.0042
     38 C          17.2325  -24.2533   20.3184 C.ar    1  UNL1       -0.0003
     39 C          16.4456  -25.3753   20.4993 C.ar    1  UNL1       -0.0000
     40 C          16.1872  -26.2174   19.4339 C.ar    1  UNL1       -0.0003
     41 C          16.7153  -25.9372   18.1875 C.ar    1  UNL1       -0.0042
     42 C          20.1986  -24.2440   13.2331 C.3     1  UNL1        0.0559
     43 C          18.8227  -23.9679   12.6837 C.ar    1  UNL1       -0.0199
     44 C          17.8304  -23.4847   13.5159 C.ar    1  UNL1       -0.0042
     45 C          16.5695  -23.2273   13.0111 C.ar    1  UNL1       -0.0003
     46 C          16.2983  -23.4622   11.6761 C.ar    1  UNL1       -0.0000
     47 C          17.2894  -23.9499   10.8450 C.ar    1  UNL1       -0.0003
     48 C          18.5514  -24.2033   11.3489 C.ar    1  UNL1       -0.0042
@<TRIPOS>BOND
     1    31    32    1
     2    32    33    1
     3    32    34    1
     4    32    30    1
     5    30    26    1
     6    26    27    2
     7    26    28   am
     8    28    25    1
     9    25    35    1
    10    25    22    1
    11    35    36    1
    12    36    41   ar
    13    36    37   ar
    14    37    38   ar
    15    38    39   ar
    16    39    40   ar
    17    40    41   ar
    18    22    21    1
    19    22    23    1
    20    21     1    1
    21     1     2    1
    22     1    42    1
    23     1     6    1
    24     2     3    2
    25     2     4    1
    26     4     7    1
    27     4     5    1
    28     5     6    2
    29     7    15    1
    30     7     8    1
    31     8    13   ar
    32     8     9   ar
    33     9    10   ar
    34    10    11   ar
    35    11    12   ar
    36    12    13   ar
    37    13    14    1
    38    14    19    1
    39    14    15    1
    40    15    16    1
    41    16    17    1
    42    17    18    2
    43    17    19   am
    44    42    43    1
    45    43    48   ar
    46    43    44   ar
    47    44    45   ar
    48    45    46   ar
    49    46    47   ar
    50    47    48   ar
    51    28    29    1
    52    19    20    1
    53    23    24    1
#	Name:			ZINC14946679
#	Creating user name:	trannguyen
#	Creation time:		Wed Dec  7 14:36:20 2022


#	Modifying user name:	trannguyen
#	Modification time:	Wed Dec  7 14:36:20 2022

@<TRIPOS>MOLECULE
ZINC14946679
 51 54 0 0 0
SMALL
GASTEIGER

@<TRIPOS>ATOM
      1 C          18.9953  -28.1217   14.7059 C.3     1  UNL1        0.0557
      2 C          20.1163  -28.2676   13.7092 C.ar    1  UNL1       -0.0154
      3 C          20.8422  -29.4397   13.6517 C.ar    1  UNL1       -0.0044
      4 C          21.8752  -29.5730   12.7412 C.ar    1  UNL1       -0.0046
      5 C          22.1836  -28.5359   11.8787 C.ar    1  UNL1       -0.0217
      6 C          21.4624  -27.3608   11.9223 C.ar    1  UNL1       -0.0001
      7 C          20.4191  -27.2196   12.8389 C.ar    1  UNL1        0.0494
      8 C          23.3103  -28.6903   10.8898 C.3     1  UNL1        0.0310
      9 C          19.6422  -25.9628   12.8915 C.2     1  UNL1        0.2489
     10 O          18.6459  -25.8350   12.2070 O.2     1  UNL1       -0.2699
     11 N          20.0386  -24.9587   13.6985 N.am    1  UNL1       -0.2732
     12 C          19.3429  -23.6701   13.6604 C.3     1  UNL1        0.0797
     13 C          19.4863  -23.0540   12.2672 C.3     1  UNL1        0.0245
     14 C          19.9552  -22.7289   14.6997 C.3     1  UNL1        0.0245
     15 C          17.8827  -23.8783   13.9696 C.ar    1  UNL1       -0.0059
     16 C          16.9178  -23.2907   13.1725 C.ar    1  UNL1        0.0004
     17 C          15.5786  -23.4799   13.4539 C.ar    1  UNL1        0.0363
     18 C          15.2023  -24.2604   14.5375 C.ar    1  UNL1        0.1337
     19 C          16.1724  -24.8488   15.3357 C.ar    1  UNL1        0.0363
     20 C          17.5102  -24.6565   15.0501 C.ar    1  UNL1        0.0004
     21 O          13.8855  -24.4476   14.8167 O.3     1  UNL1       -0.5055
     22 H          13.2310  -24.0499   14.2770 H       1  UNL1        0.2922
     23 C          21.1654  -25.1560   14.6138 C.3     1  UNL1        0.1255
     24 C          22.4498  -24.6430   13.9596 C.3     1  UNL1        0.1586
     25 O          23.4746  -25.6311   14.0829 O.3     1  UNL1       -0.3802
     26 H          23.6394  -25.8107   15.0218 H       1  UNL1        0.2105
     27 C          19.3439  -28.8909   15.9817 C.3     1  UNL1        0.1152
     28 O          18.1783  -29.5591   16.4685 O.3     1  UNL1       -0.3841
     29 H          17.4886  -28.9054   16.6632 H       1  UNL1        0.2103
     30 C          19.8525  -27.9139   17.0435 C.3     1  UNL1        0.0343
     31 C          18.7759  -27.7163   18.1124 C.3     1  UNL1        0.0290
     32 C          17.2588  -25.7965   18.6948 C.ar    1  UNL1        0.0496
     33 C          17.0316  -24.4302   18.8691 C.ar    1  UNL1        0.0042
     34 C          18.0551  -23.5310   18.6536 C.ar    1  UNL1        0.0001
     35 C          19.3050  -23.9807   18.2654 C.ar    1  UNL1       -0.0003
     36 C          19.5383  -25.3336   18.0963 C.ar    1  UNL1       -0.0041
     37 C          18.5216  -26.2433   18.3031 C.ar    1  UNL1       -0.0177
     38 N          15.9284  -27.2310   20.1669 N.am    1  UNL1       -0.2767
     39 C          16.1666  -26.7660   18.9245 C.2     1  UNL1        0.2487
     40 O          15.4833  -27.1438   17.9928 O.2     1  UNL1       -0.2699
     41 C          14.9227  -28.2750   20.3780 C.3     1  UNL1        0.0606
     42 C          13.5928  -27.8960   19.6804 C.3     1  UNL1        0.0183
     43 C          12.9458  -26.9156   20.6953 C.3     1  UNL1        0.0017
     44 C          13.2973  -27.5109   22.0744 C.3     1  UNL1        0.0017
     45 C          14.5542  -28.3752   21.8728 C.3     1  UNL1        0.0183
     46 C          14.2446  -30.5110   19.4931 C.3     1  UNL1        0.0017
     47 C          15.4337  -29.6214   19.8612 C.3     1  UNL1        0.0183
     48 C          16.6752  -26.6923   21.3063 C.3     1  UNL1        0.1252
     49 C          17.8286  -27.6362   21.6525 C.3     1  UNL1        0.1586
     50 O          18.2123  -27.4395   23.0149 O.3     1  UNL1       -0.3802
     51 H          18.4973  -26.5210   23.1412 H       1  UNL1        0.2105
@<TRIPOS>BOND
     1    46    47    1
     2    47    41    1
     3    41    45    1
     4    41    42    1
     5    41    38    1
     6    42    43    1
     7    43    44    1
     8    44    45    1
     9    38    48    1
    10    38    39   am
    11    48    49    1
    12    49    50    1
    13    39    40    2
    14    39    32    1
    15    32    37   ar
    16    32    33   ar
    17    33    34   ar
    18    34    35   ar
    19    35    36   ar
    20    36    37   ar
    21    37    31    1
    22    31    30    1
    23    30    27    1
    24    27     1    1
    25    27    28    1
    26     1     2    1
    27     2     7   ar
    28     2     3   ar
    29     3     4   ar
    30     4     5   ar
    31     5     6   ar
    32     5     8    1
    33     6     7   ar
    34     7     9    1
    35     9    10    2
    36     9    11   am
    37    11    23    1
    38    11    12    1
    39    23    24    1
    40    24    25    1
    41    12    13    1
    42    12    14    1
    43    12    15    1
    44    15    20   ar
    45    15    16   ar
    46    16    17   ar
    47    17    18   ar
    48    18    19   ar
    49    18    21    1
    50    19    20   ar
    51    50    51    1
    52    25    26    1
    53    21    22    1
    54    28    29    1
#	Name:			ZINC14946736
#	Creating user name:	trannguyen
#	Creation time:		Wed Dec  7 14:36:20 2022


#	Modifying user name:	trannguyen
#	Modification time:	Wed Dec  7 14:36:20 2022

@<TRIPOS>MOLECULE
ZINC14946736
 45 47 0 0 0
SMALL
GASTEIGER

@<TRIPOS>ATOM
      1 C          16.7264  -24.5585   13.0315 C.3     1  UNL1        0.0894
      2 N          15.4153  -24.7292   13.6625 N.am    1  UNL1       -0.3029
      3 C          15.1888  -25.7832   14.4713 C.2     1  UNL1        0.2427
      4 O          16.0704  -26.5904   14.6766 O.2     1  UNL1       -0.2732
      5 H          14.6996  -24.0741   13.4957 H       1  UNL1        0.1495
      6 C          13.8402  -25.9589   15.1202 C.3     1  UNL1        0.1773
      7 N          13.7829  -27.2649   15.7816 N.pl3   1  UNL1       -0.2958
      8 C          13.9393  -27.3537   17.1668 C.ar    1  UNL1        0.0484
      9 C          15.2106  -27.4437   17.7194 C.ar    1  UNL1        0.0145
     10 C          15.3618  -27.5266   19.0896 C.ar    1  UNL1        0.0013
     11 C          14.2491  -27.5308   19.9106 C.ar    1  UNL1        0.0001
     12 C          12.9818  -27.4467   19.3635 C.ar    1  UNL1        0.0013
     13 C          12.8237  -27.3583   17.9944 C.ar    1  UNL1        0.0145
     14 C          13.5616  -28.4777   14.9902 C.3     1  UNL1        0.1181
     15 C          12.1230  -28.5311   14.5445 C.ar    1  UNL1       -0.0012
     16 C          11.8108  -28.4124   13.2023 C.ar    1  UNL1       -0.0025
     17 C          10.4921  -28.4599   12.7892 C.ar    1  UNL1        0.0010
     18 C           9.4818  -28.6264   13.7163 C.ar    1  UNL1        0.0141
     19 C           9.7915  -28.7411   15.0655 C.ar    1  UNL1        0.0413
     20 C          11.1180  -28.6981   15.4765 C.ar    1  UNL1        0.0115
     21 N           8.7721  -28.9042   16.0062 N.pl3   1  UNL1       -0.3570
     22 H           7.8326  -28.9345   15.7137 H       1  UNL1        0.1424
     23 H           8.9931  -28.9890   16.9619 H       1  UNL1        0.1424
     24 C          17.0740  -23.0697   12.9725 C.3     1  UNL1        0.0213
     25 C          18.4819  -22.8970   12.3991 C.3     1  UNL1        0.0033
     26 C          19.2180  -21.8029   13.1750 C.3     1  UNL1        0.0203
     27 C          20.6755  -22.2187   13.3843 C.3     1  UNL1        0.1088
     28 C          21.5999  -21.1536   12.7910 C.3     1  UNL1        0.1547
     29 O          22.8409  -21.7550   12.4164 O.3     1  UNL1       -0.3805
     30 H          23.2594  -22.1468   13.1988 H       1  UNL1        0.2105
     31 N          20.9436  -22.3541   14.8181 N.3     1  UNL1       -0.1544
     32 S          20.6549  -23.7948   15.5819 S.O2    1  UNL1        0.0633
     33 O          21.6300  -23.9125   16.6089 O.2     1  UNL1       -0.1528
     34 O          19.2598  -23.8415   15.8473 O.2     1  UNL1       -0.1528
     35 C          21.8013  -28.1838   11.6034 C.3     1  UNL1        0.0310
     36 C          21.5149  -27.0874   12.5970 C.ar    1  UNL1       -0.0218
     37 C          20.2300  -26.9039   13.0726 C.ar    1  UNL1       -0.0029
     38 C          19.9674  -25.8983   13.9839 C.ar    1  UNL1        0.0196
     39 C          20.9897  -25.0766   14.4203 C.ar    1  UNL1        0.1222
     40 C          22.2738  -25.2570   13.9410 C.ar    1  UNL1        0.0196
     41 C          22.5373  -26.2654   13.0330 C.ar    1  UNL1       -0.0029
     42 C          21.4671  -21.2152   15.5762 C.3     1  UNL1        0.0958
     43 C          20.3046  -20.4381   16.1973 C.3     1  UNL1        0.0178
     44 C          20.1382  -20.8525   17.6606 C.3     1  UNL1        0.0015
     45 C          20.5959  -18.9380   16.1219 C.3     1  UNL1        0.0015
@<TRIPOS>BOND
     1    35    36    1
     2    36    41   ar
     3    36    37   ar
     4    37    38   ar
     5    38    39   ar
     6    39    40   ar
     7    39    32    1
     8    40    41   ar
     9    32    33    2
    10    32    34    2
    11    32    31    1
    12    31    42    1
    13    31    27    1
    14    42    43    1
    15    43    44    1
    16    43    45    1
    17    27    26    1
    18    27    28    1
    19    26    25    1
    20    25    24    1
    21    24     1    1
    22     1     2    1
    23     2     3   am
    24     3     4    2
    25     3     6    1
    26     6     7    1
    27     7    14    1
    28     7     8    1
    29    14    15    1
    30    15    20   ar
    31    15    16   ar
    32    16    17   ar
    33    17    18   ar
    34    18    19   ar
    35    19    20   ar
    36    19    21    1
    37     8    13   ar
    38     8     9   ar
    39     9    10   ar
    40    10    11   ar
    41    11    12   ar
    42    12    13   ar
    43    28    29    1
    44     2     5    1
    45    21    22    1
    46    21    23    1
    47    29    30    1
#	Name:			ZINC14946790
#	Creating user name:	trannguyen
#	Creation time:		Wed Dec  7 14:36:20 2022


#	Modifying user name:	trannguyen
#	Modification time:	Wed Dec  7 14:36:20 2022

@<TRIPOS>MOLECULE
ZINC14946790
 46 49 0 0 0
SMALL
GASTEIGER

@<TRIPOS>ATOM
      1 C          20.1644  -23.2247   13.0956 C.3     1  UNL1        0.1566
      2 C          21.4050  -22.5409   12.5814 C.2     1  UNL1        0.2513
      3 O          21.3105  -21.5181   11.9364 O.2     1  UNL1       -0.2723
      4 N          22.6195  -23.0657   12.8384 N.am    1  UNL1       -0.2519
      5 N          23.7439  -22.4458   12.3724 N.3     1  UNL1       -0.2543
      6 H          22.6962  -23.8958   13.3620 H       1  UNL1        0.1688
      7 H          23.4803  -21.6071   11.8552 H       1  UNL1        0.1405
      8 H          24.2511  -23.0803   11.7555 H       1  UNL1        0.1405
      9 N          20.0815  -23.0578   14.5486 N.3     1  UNL1       -0.1481
     10 S          20.5844  -24.2754   15.5520 S.O2    1  UNL1        0.0637
     11 O          20.3663  -25.4936   14.8536 O.2     1  UNL1       -0.1528
     12 O          21.8636  -23.8964   16.0411 O.2     1  UNL1       -0.1528
     13 C          16.8657  -24.3215   20.3033 C.3     1  UNL1        0.0310
     14 C          17.7944  -24.3098   19.1166 C.ar    1  UNL1       -0.0218
     15 C          19.1310  -24.0012   19.2879 C.ar    1  UNL1       -0.0029
     16 C          19.9828  -23.9903   18.1993 C.ar    1  UNL1        0.0196
     17 C          19.4985  -24.2891   16.9396 C.ar    1  UNL1        0.1222
     18 C          18.1610  -24.5931   16.7675 C.ar    1  UNL1        0.0196
     19 C          17.3100  -24.6080   17.8567 C.ar    1  UNL1       -0.0029
     20 C          19.5536  -21.8138   15.1142 C.3     1  UNL1        0.0963
     21 C          20.6904  -21.0310   15.7743 C.3     1  UNL1        0.0178
     22 C          21.0222  -19.8012   14.9268 C.3     1  UNL1        0.0015
     23 C          20.2579  -20.5851   17.1726 C.3     1  UNL1        0.0015
     24 C          18.9302  -22.6027   12.4395 C.3     1  UNL1        0.0271
     25 C          18.4046  -23.5399   11.3504 C.3     1  UNL1        0.0037
     26 C          17.6717  -24.7157   11.9995 C.3     1  UNL1        0.0214
     27 C          16.3673  -24.2198   12.6270 C.3     1  UNL1        0.0927
     28 N          15.9101  -25.1849   13.6299 N.am    1  UNL1       -0.2707
     29 C          15.0131  -24.8119   14.5642 C.2     1  UNL1        0.4017
     30 O          14.5838  -23.6753   14.5748 O.2     1  UNL1       -0.2264
     31 H          16.2579  -26.1058   13.6214 H       1  UNL1        0.1527
     32 O          14.5930  -25.6988   15.4860 O.3     1  UNL1       -0.4340
     33 C          13.7382  -26.7769   15.0219 C.3     1  UNL1        0.2187
     34 C          12.3774  -26.6832   15.7149 C.3     1  UNL1        0.0884
     35 C          12.4145  -27.4152   17.0340 C.ar    1  UNL1       -0.0148
     36 C          13.1726  -27.2353   18.1715 C.ar    1  UNL1       -0.0038
     37 C          12.9929  -28.0675   19.2623 C.ar    1  UNL1       -0.0003
     38 C          12.0599  -29.0871   19.2106 C.ar    1  UNL1       -0.0000
     39 C          11.2967  -29.2741   18.0768 C.ar    1  UNL1       -0.0003
     40 C          11.4689  -28.4354   16.9742 C.ar    1  UNL1       -0.0038
     41 C          10.7972  -28.4095   15.6514 C.ar    1  UNL1       -0.0038
     42 C          11.3229  -27.3732   14.8846 C.ar    1  UNL1       -0.0148
     43 C          10.8550  -27.1461   13.6077 C.ar    1  UNL1       -0.0038
     44 C           9.8584  -27.9495   13.0821 C.ar    1  UNL1       -0.0003
     45 C           9.3298  -28.9816   13.8362 C.ar    1  UNL1       -0.0000
     46 C           9.7923  -29.2162   15.1144 C.ar    1  UNL1       -0.0003
@<TRIPOS>BOND
     1    13    14    1
     2    14    19   ar
     3    14    15   ar
     4    15    16   ar
     5    16    17   ar
     6    17    18   ar
     7    17    10    1
     8    18    19   ar
     9    10    11    2
    10    10    12    2
    11    10     9    1
    12     9    20    1
    13     9     1    1
    14    20    21    1
    15    21    22    1
    16    21    23    1
    17     1    24    1
    18     1     2    1
    19    24    25    1
    20    25    26    1
    21    26    27    1
    22    27    28    1
    23    28    29   am
    24    29    30    2
    25    29    32    1
    26    32    33    1
    27    33    34    1
    28    34    42    1
    29    34    35    1
    30    35    40   ar
    31    35    36   ar
    32    36    37   ar
    33    37    38   ar
    34    38    39   ar
    35    39    40   ar
    36    40    41    1
    37    41    46   ar
    38    41    42   ar
    39    42    43   ar
    40    43    44   ar
    41    44    45   ar
    42    45    46   ar
    43     2     3    2
    44     2     4   am
    45     4     5    1
    46    28    31    1
    47     4     6    1
    48     5     7    1
    49     5     8    1
#	Name:			ZINC14947144
#	Creating user name:	trannguyen
#	Creation time:		Wed Dec  7 14:36:19 2022


#	Modifying user name:	trannguyen
#	Modification time:	Wed Dec  7 14:36:19 2022

@<TRIPOS>MOLECULE
ZINC14947144
 50 53 0 0 0
SMALL
GASTEIGER

@<TRIPOS>ATOM
      1 C          14.6584  -24.3536   14.8195 C.3     1  UNL1        0.0894
      2 N          14.1607  -25.6527   15.2788 N.am    1  UNL1       -0.3030
      3 C          12.8359  -25.8994   15.2949 C.2     1  UNL1        0.2410
      4 O          12.0556  -25.0460   14.9291 O.2     1  UNL1       -0.2733
      5 H          14.7941  -26.3455   15.5758 H       1  UNL1        0.1495
      6 C          12.3240  -27.2358   15.7674 C.3     1  UNL1        0.1566
      7 N          12.2118  -28.1472   14.6259 N.am    1  UNL1       -0.2978
      8 C          11.0038  -28.6139   14.2525 C.2     1  UNL1        0.2223
      9 O          10.0006  -28.2045   14.7973 O.2     1  UNL1       -0.2751
     10 H          13.0188  -28.4187   14.1315 H       1  UNL1        0.1498
     11 C          10.8997  -29.6448   13.1582 C.3     1  UNL1        0.0765
     12 C          10.9382  -31.1180   13.5697 C.3     1  UNL1        0.0096
     13 C          12.1409  -30.4894   12.8630 C.3     1  UNL1        0.0096
     14 C          13.2967  -27.8207   16.7934 C.3     1  UNL1        0.0714
     15 C          13.3544  -29.3182   16.6341 C.ar    1  UNL1       -0.0163
     16 C          12.3595  -30.1097   17.1768 C.ar    1  UNL1       -0.0039
     17 C          12.4099  -31.4830   17.0266 C.ar    1  UNL1       -0.0003
     18 C          13.4606  -32.0654   16.3427 C.ar    1  UNL1       -0.0000
     19 C          14.4582  -31.2742   15.8046 C.ar    1  UNL1       -0.0003
     20 C          14.4051  -29.9006   15.9502 C.ar    1  UNL1       -0.0039
     21 C          12.8246  -27.4812   18.1836 C.ar    1  UNL1       -0.0163
     22 C          13.7121  -27.5158   19.2428 C.ar    1  UNL1       -0.0039
     23 C          13.2801  -27.1996   20.5173 C.ar    1  UNL1       -0.0003
     24 C          11.9580  -26.8589   20.7342 C.ar    1  UNL1       -0.0000
     25 C          11.0693  -26.8293   19.6759 C.ar    1  UNL1       -0.0003
     26 C          11.5025  -27.1404   18.4006 C.ar    1  UNL1       -0.0039
     27 C          15.6559  -24.5639   13.6787 C.3     1  UNL1        0.0213
     28 C          16.0319  -23.2097   13.0738 C.3     1  UNL1        0.0033
     29 C          17.5130  -22.9283   13.3345 C.3     1  UNL1        0.0203
     30 C          18.3425  -24.1496   12.9325 C.3     1  UNL1        0.1088
     31 C          18.5457  -24.1514   11.4161 C.3     1  UNL1        0.1547
     32 O          18.1733  -25.4255   10.8870 O.3     1  UNL1       -0.3805
     33 H          18.7246  -26.1157   11.2879 H       1  UNL1        0.2105
     34 N          19.6456  -24.0959   13.5998 N.3     1  UNL1       -0.1544
     35 S          20.0210  -25.2021   14.7736 S.O2    1  UNL1        0.0633
     36 O          19.5680  -26.4638   14.3024 O.2     1  UNL1       -0.1528
     37 O          21.3743  -24.9655   15.1367 O.2     1  UNL1       -0.1528
     38 C          19.0448  -24.8125   16.1879 C.ar    1  UNL1        0.1223
     39 C          19.4634  -23.8292   17.0655 C.ar    1  UNL1        0.0212
     40 C          18.6978  -23.5176   18.1718 C.ar    1  UNL1        0.0155
     41 C          17.5118  -24.2009   18.4087 C.ar    1  UNL1        0.0416
     42 C          17.0972  -25.1920   17.5281 C.ar    1  UNL1        0.0155
     43 C          17.8647  -25.4947   16.4207 C.ar    1  UNL1        0.0212
     44 N          16.7378  -23.8918   19.5295 N.pl3   1  UNL1       -0.3570
     45 H          17.0327  -23.1892   20.1529 H       1  UNL1        0.1424
     46 H          15.8973  -24.3765   19.6962 H       1  UNL1        0.1424
     47 C          20.6167  -23.0636   13.2286 C.3     1  UNL1        0.0958
     48 C          21.5233  -21.6076   15.0452 C.3     1  UNL1        0.0015
     49 C          20.3674  -21.8054   14.0627 C.3     1  UNL1        0.0178
     50 C          20.2712  -20.5909   13.1372 C.3     1  UNL1        0.0015
@<TRIPOS>BOND
     1    48    49    1
     2    49    50    1
     3    49    47    1
     4    47    34    1
     5    34    30    1
     6    34    35    1
     7    30    29    1
     8    30    31    1
     9    29    28    1
    10    28    27    1
    11    27     1    1
    12     1     2    1
    13     2     3   am
    14     3     4    2
    15     3     6    1
    16     6    14    1
    17     6     7    1
    18    14    21    1
    19    14    15    1
    20    21    26   ar
    21    21    22   ar
    22    22    23   ar
    23    23    24   ar
    24    24    25   ar
    25    25    26   ar
    26    15    20   ar
    27    15    16   ar
    28    16    17   ar
    29    17    18   ar
    30    18    19   ar
    31    19    20   ar
    32     7     8   am
    33     8     9    2
    34     8    11    1
    35    11    13    1
    36    11    12    1
    37    12    13    1
    38    31    32    1
    39    35    36    2
    40    35    37    2
    41    35    38    1
    42    38    43   ar
    43    38    39   ar
    44    39    40   ar
    45    40    41   ar
    46    41    42   ar
    47    41    44    1
    48    42    43   ar
    49     2     5    1
    50     7    10    1
    51    32    33    1
    52    44    45    1
    53    44    46    1
#	Name:			ZINC14947918
#	Creating user name:	trannguyen
#	Creation time:		Wed Dec  7 14:36:19 2022


#	Modifying user name:	trannguyen
#	Modification time:	Wed Dec  7 14:36:19 2022

@<TRIPOS>MOLECULE
ZINC14947918
 45 47 0 0 0
SMALL
GASTEIGER

@<TRIPOS>ATOM
      1 C          15.9686  -25.8099   14.1448 C.3     1  UNL1        0.1530
      2 N          17.5540  -25.9891   16.0350 N.am    1  UNL1       -0.3005
      3 C          16.4517  -25.4130   15.5160 C.2     1  UNL1        0.2409
      4 O          15.8485  -24.5751   16.1524 O.2     1  UNL1       -0.2733
      5 H          18.0436  -26.6692   15.5183 H       1  UNL1        0.1497
      6 C          18.0236  -25.6034   17.3681 C.3     1  UNL1        0.0984
      7 C          19.5604  -23.8175   16.6632 C.2     1  UNL1        0.0789
      8 C          19.3985  -24.9960   17.2600 C.2     1  UNL1        0.0000
      9 C          20.9012  -23.2254   16.5579 C.2     1  UNL1        0.3411
     10 O          21.7297  -23.7242   15.8219 O.2     1  UNL1       -0.2449
     11 O          21.2121  -22.1289   17.2777 O.3     1  UNL1       -0.4454
     12 C          20.0160  -20.0256   17.0012 C.3     1  UNL1        0.0513
     13 C          20.1053  -21.3371   17.7842 C.3     1  UNL1        0.2089
     14 C          18.0816  -26.8406   18.2662 C.3     1  UNL1        0.0504
     15 C          16.8805  -26.8576   19.1762 C.ar    1  UNL1       -0.0202
     16 C          15.6785  -27.3700   18.7248 C.ar    1  UNL1       -0.0042
     17 C          14.5781  -27.3899   19.5611 C.ar    1  UNL1       -0.0003
     18 C          14.6767  -26.8880   20.8453 C.ar    1  UNL1       -0.0000
     19 C          15.8773  -26.3710   21.2950 C.ar    1  UNL1       -0.0003
     20 C          16.9792  -26.3557   20.4604 C.ar    1  UNL1       -0.0042
     21 N          14.6085  -26.3454   14.2422 N.am    1  UNL1       -0.2967
     22 C          14.4040  -27.5772   14.7495 C.2     1  UNL1        0.2406
     23 O          15.3362  -28.2115   15.1963 O.2     1  UNL1       -0.2733
     24 H          13.8439  -25.8054   13.9372 H       1  UNL1        0.1499
     25 C          13.0159  -28.1637   14.7675 C.3     1  UNL1        0.1487
     26 N          12.2545  -27.5826   15.8759 N.am    1  UNL1       -0.2935
     27 C          12.0711  -28.2871   17.0101 C.2     1  UNL1        0.2672
     28 O          12.5373  -29.4044   17.1133 O.2     1  UNL1       -0.2684
     29 H          11.8767  -26.6773   15.7923 H       1  UNL1        0.1502
     30 C          11.3000  -27.6986   18.1323 C.ar    1  UNL1        0.1757
     31 C          10.6931  -28.3983   19.2123 C.ar    1  UNL1        0.0627
     32 C          10.1213  -27.4209   19.9531 C.ar    1  UNL1        0.1550
     33 O          10.3885  -26.2629   19.3335 O.2     1  UNL1       -0.3576
     34 N          11.0452  -26.4295   18.3321 N.ar    1  UNL1       -0.0727
     35 C           9.3369  -27.5997   21.2273 C.3     1  UNL1        0.0754
     36 C          12.3124  -27.8499   13.4456 C.3     1  UNL1        0.0269
     37 C          12.6649  -28.9225   12.4130 C.3     1  UNL1        0.0022
     38 C          10.7984  -27.8316   13.6655 C.3     1  UNL1        0.0022
     39 C          15.9700  -24.5842   13.2290 C.3     1  UNL1        0.0553
     40 C          17.3747  -24.0537   13.1020 C.ar    1  UNL1       -0.0200
     41 C          18.4244  -24.9240   12.8748 C.ar    1  UNL1       -0.0042
     42 C          19.7123  -24.4368   12.7535 C.ar    1  UNL1       -0.0003
     43 C          19.9520  -23.0803   12.8698 C.ar    1  UNL1       -0.0000
     44 C          18.9030  -22.2106   13.1021 C.ar    1  UNL1       -0.0003
     45 C          17.6143  -22.6972   13.2182 C.ar    1  UNL1       -0.0042
@<TRIPOS>BOND
     1    12    13    1
     2    13    11    1
     3    11     9    1
     4     9    10    2
     5     9     7    1
     6     7     8    2
     7     8     6    1
     8     6    14    1
     9     6     2    1
    10    14    15    1
    11    15    20   ar
    12    15    16   ar
    13    16    17   ar
    14    17    18   ar
    15    18    19   ar
    16    19    20   ar
    17     2     3   am
    18     3     4    2
    19     3     1    1
    20     1    39    1
    21     1    21    1
    22    39    40    1
    23    40    45   ar
    24    40    41   ar
    25    41    42   ar
    26    42    43   ar
    27    43    44   ar
    28    44    45   ar
    29    21    22   am
    30    22    23    2
    31    22    25    1
    32    25    36    1
    33    25    26    1
    34    36    37    1
    35    36    38    1
    36    26    27   am
    37    27    28    2
    38    27    30    1
    39    30    34   ar
    40    30    31   ar
    41    31    32   ar
    42    32    33   ar
    43    32    35    1
    44    33    34   ar
    45     2     5    1
    46    21    24    1
    47    26    29    1
#	Name:			ZINC14949517
#	Creating user name:	trannguyen
#	Creation time:		Wed Dec  7 14:36:19 2022


#	Modifying user name:	trannguyen
#	Modification time:	Wed Dec  7 14:36:19 2022

@<TRIPOS>MOLECULE
ZINC14949517
 43 45 0 0 0
SMALL
GASTEIGER

@<TRIPOS>ATOM
      1 C          20.8606  -23.7439   13.6282 C.3     1  UNL1        0.1517
      2 C          19.5719  -23.1566   13.0133 C.3     1  UNL1        0.0288
      3 C          18.4203  -23.8050   13.8153 C.3     1  UNL1        0.0220
      4 C          18.5589  -24.1461   12.3302 C.3     1  UNL1        0.0037
      5 C          19.0425  -25.5526   11.9718 C.3     1  UNL1        0.0001
      6 C          17.5379  -23.5351   11.3683 C.3     1  UNL1        0.0001
      7 C          19.1165  -24.7249   14.8412 C.3     1  UNL1        0.0939
      8 N          20.4363  -25.0253   14.2389 N.am    1  UNL1       -0.2717
      9 C          21.1003  -26.1980   14.2451 C.2     1  UNL1        0.2439
     10 O          22.1819  -26.2854   13.7034 O.2     1  UNL1       -0.2731
     11 N          20.8962  -21.5789   14.8240 N.am    1  UNL1       -0.2979
     12 C          21.4103  -22.8165   14.6813 C.2     1  UNL1        0.2408
     13 O          22.3152  -23.1840   15.4004 O.2     1  UNL1       -0.2733
     14 H          20.1617  -21.2806   14.2403 H       1  UNL1        0.1498
     15 C          21.4305  -20.6773   15.8478 C.3     1  UNL1        0.1385
     16 C          20.4916  -20.6426   17.0260 C.2     1  UNL1        0.2434
     17 O          19.8167  -19.6623   17.2318 O.2     1  UNL1       -0.2848
     18 C          20.3956  -21.8184   17.9376 C.2     1  UNL1        0.2827
     19 O          21.2743  -22.0319   18.7471 O.2     1  UNL1       -0.2669
     20 N          19.3330  -22.6440   17.8629 N.am    1  UNL1       -0.2945
     21 H          18.6202  -22.4708   17.2064 H       1  UNL1        0.1501
     22 C          19.2386  -23.7994   18.7588 C.3     1  UNL1        0.1164
     23 C          17.8579  -24.3959   18.6654 C.2     1  UNL1       -0.0049
     24 C          16.9287  -24.0326   19.5144 C.2     1  UNL1       -0.0032
     25 C          21.5698  -19.2695   15.2651 C.3     1  UNL1        0.0277
     26 C          21.8377  -18.2230   13.0122 C.3     1  UNL1        0.0001
     27 C          21.0600  -19.2619   13.8226 C.3     1  UNL1        0.0022
     28 C          20.4988  -27.4009   14.9251 C.3     1  UNL1        0.1512
     29 C          20.2596  -27.0849   16.4028 C.3     1  UNL1        0.0270
     30 C          21.5417  -27.3493   17.1949 C.3     1  UNL1        0.0021
     31 C          21.3025  -27.0332   18.6726 C.3     1  UNL1        0.0001
     32 C          20.1791  -27.9227   19.2091 C.3     1  UNL1        0.0000
     33 C          18.8971  -27.6584   18.4170 C.3     1  UNL1        0.0001
     34 C          19.1362  -27.9743   16.9393 C.3     1  UNL1        0.0021
     35 N          21.4173  -28.5365   14.8109 N.am    1  UNL1       -0.2640
     36 C          21.2064  -29.4822   13.8740 C.2     1  UNL1        0.4017
     37 O          20.2545  -29.3929   13.1241 O.2     1  UNL1       -0.2264
     38 H          22.1885  -28.6088   15.4185 H       1  UNL1        0.1532
     39 O          22.0504  -30.5259   13.7691 O.3     1  UNL1       -0.4419
     40 C          21.8093  -31.6592   14.6443 C.3     1  UNL1        0.1378
     41 C          22.3795  -31.3620   16.0325 C.3     1  UNL1        0.0437
     42 C          20.3036  -31.9077   14.7538 C.3     1  UNL1        0.0437
     43 C          22.4907  -32.9022   14.0684 C.3     1  UNL1        0.0437
@<TRIPOS>BOND
     1    26    27    1
     2    27    25    1
     3    25    15    1
     4    15    16    1
     5    15    11    1
     6    16    17    2
     7    16    18    1
     8    18    19    2
     9    18    20   am
    10    20    22    1
    11    22    23    1
    12    23    24    2
    13    11    12   am
    14    12    13    2
    15    12     1    1
    16     1     8    1
    17     1     2    1
    18     2     4    1
    19     2     3    1
    20     3     4    1
    21     3     7    1
    22     4     5    1
    23     4     6    1
    24     7     8    1
    25     8     9   am
    26     9    10    2
    27     9    28    1
    28    28    29    1
    29    28    35    1
    30    29    34    1
    31    29    30    1
    32    30    31    1
    33    31    32    1
    34    32    33    1
    35    33    34    1
    36    35    36   am
    37    36    37    2
    38    36    39    1
    39    39    40    1
    40    40    41    1
    41    40    42    1
    42    40    43    1
    43    20    21    1
    44    11    14    1
    45    35    38    1
#	Name:			ZINC14949593
#	Creating user name:	trannguyen
#	Creation time:		Wed Dec  7 14:36:19 2022


#	Modifying user name:	trannguyen
#	Modification time:	Wed Dec  7 14:36:19 2022

@<TRIPOS>MOLECULE
ZINC14949593
 45 48 0 0 0
SMALL
GASTEIGER

@<TRIPOS>ATOM
      1 C          15.1720  -28.0637   20.3931 C.3     1  UNL1        0.0001
      2 C          15.6418  -27.2501   19.1854 C.3     1  UNL1        0.0037
      3 C          17.1177  -27.3545   18.7959 C.3     1  UNL1        0.0220
      4 C          16.5754  -26.0676   19.4519 C.3     1  UNL1        0.0288
      5 C          16.7026  -24.9809   18.3626 C.3     1  UNL1        0.1517
      6 N          16.7061  -25.7308   17.0850 N.am    1  UNL1       -0.2717
      7 C          17.5250  -26.9326   17.3677 C.3     1  UNL1        0.0939
      8 C          16.1015  -25.3958   15.9280 C.2     1  UNL1        0.2439
      9 O          15.4601  -24.3692   15.8541 O.2     1  UNL1       -0.2731
     10 C          14.6226  -27.1027   18.0539 C.3     1  UNL1        0.0001
     11 C          17.9922  -24.2191   18.5284 C.2     1  UNL1        0.2408
     12 O          18.1298  -23.4553   19.4604 O.2     1  UNL1       -0.2733
     13 N          18.9927  -24.3867   17.6410 N.am    1  UNL1       -0.2979
     14 H          18.8810  -25.0068   16.8845 H       1  UNL1        0.1498
     15 C          20.2465  -23.6461   17.8023 C.3     1  UNL1        0.1385
     16 C          21.2708  -24.5309   18.4650 C.2     1  UNL1        0.2432
     17 O          22.2760  -24.0483   18.9290 O.2     1  UNL1       -0.2848
     18 C          21.0432  -26.0020   18.5477 C.2     1  UNL1        0.2793
     19 O          20.4252  -26.4688   19.4822 O.2     1  UNL1       -0.2672
     20 N          21.5236  -26.8134   17.5848 N.am    1  UNL1       -0.3229
     21 H          22.0249  -26.4347   16.8268 H       1  UNL1        0.1453
     22 H          21.3733  -27.7848   17.6394 H       1  UNL1        0.1453
     23 C          20.7613  -23.2098   16.4291 C.3     1  UNL1        0.0277
     24 C          20.3491  -21.7599   16.1670 C.3     1  UNL1        0.0021
     25 C          21.4077  -21.0779   15.2979 C.3     1  UNL1        0.0001
     26 C          20.9955  -19.6280   15.0358 C.3     1  UNL1        0.0000
     27 C          20.8721  -18.8842   16.3671 C.3     1  UNL1        0.0000
     28 C          19.8136  -19.5662   17.2362 C.3     1  UNL1        0.0000
     29 C          20.2258  -21.0161   17.4984 C.3     1  UNL1        0.0001
     30 C          16.2226  -26.2967   14.7260 C.3     1  UNL1        0.1512
     31 C          17.0831  -25.6135   13.6612 C.3     1  UNL1        0.0270
     32 C          18.0453  -24.6332   14.3349 C.3     1  UNL1        0.0021
     33 C          18.9057  -23.9500   13.2700 C.3     1  UNL1        0.0001
     34 C          18.0034  -23.1906   12.2954 C.3     1  UNL1        0.0000
     35 C          17.0412  -24.1709   11.6216 C.3     1  UNL1        0.0001
     36 C          16.1808  -24.8541   12.6865 C.3     1  UNL1        0.0021
     37 N          14.8898  -26.5636   14.1794 N.am    1  UNL1       -0.2640
     38 C          14.3023  -27.7582   14.3893 C.2     1  UNL1        0.4017
     39 O          14.8780  -28.6140   15.0318 O.2     1  UNL1       -0.2264
     40 H          14.4234  -25.8703   13.6588 H       1  UNL1        0.1532
     41 O          13.0774  -28.0034   13.8871 O.3     1  UNL1       -0.4419
     42 C          11.9410  -27.5613   14.6755 C.3     1  UNL1        0.1378
     43 C          12.2597  -26.2085   15.3154 C.3     1  UNL1        0.0437
     44 C          10.7157  -27.4212   13.7701 C.3     1  UNL1        0.0437
     45 C          11.6504  -28.5882   15.7718 C.3     1  UNL1        0.0437
@<TRIPOS>BOND
     1     1     2    1
     2     2     4    1
     3     2     3    1
     4     2    10    1
     5     3     7    1
     6     3     4    1
     7     4     5    1
     8     5     6    1
     9     5    11    1
    10     6     7    1
    11     6     8   am
    12     8     9    2
    13     8    30    1
    14    30    31    1
    15    30    37    1
    16    31    36    1
    17    31    32    1
    18    32    33    1
    19    33    34    1
    20    34    35    1
    21    35    36    1
    22    37    38   am
    23    38    39    2
    24    38    41    1
    25    41    42    1
    26    42    43    1
    27    42    44    1
    28    42    45    1
    29    11    12    2
    30    11    13   am
    31    13    15    1
    32    15    23    1
    33    15    16    1
    34    23    24    1
    35    24    29    1
    36    24    25    1
    37    25    26    1
    38    26    27    1
    39    27    28    1
    40    28    29    1
    41    16    17    2
    42    16    18    1
    43    18    19    2
    44    18    20   am
    45    37    40    1
    46    13    14    1
    47    20    21    1
    48    20    22    1
#	Name:			ZINC14951327
#	Creating user name:	trannguyen
#	Creation time:		Wed Dec  7 14:36:19 2022


#	Modifying user name:	trannguyen
#	Modification time:	Wed Dec  7 14:36:19 2022

@<TRIPOS>MOLECULE
ZINC14951327
 46 49 0 0 0
SMALL
GASTEIGER

@<TRIPOS>ATOM
      1 C          16.3286  -25.7475   15.1670 C.3     1  UNL1        0.1042
      2 N          15.0351  -26.3728   15.4538 N.am    1  UNL1       -0.3002
      3 C          13.8958  -25.6742   15.2807 C.2     1  UNL1        0.2647
      4 O          13.9412  -24.5277   14.8875 O.2     1  UNL1       -0.2711
      5 H          14.9982  -27.3034   15.7731 H       1  UNL1        0.1496
      6 C          12.5653  -26.3175   15.5757 C.3     1  UNL1        0.2656
      7 C          12.6940  -27.8529   15.5674 C.3     1  UNL1        0.1546
      8 N          11.7896  -28.2744   14.4866 N.am    1  UNL1       -0.2207
      9 C          11.2268  -27.1866   13.9430 C.2     1  UNL1        0.4092
     10 O          10.4362  -27.2392   13.0217 O.2     1  UNL1       -0.2258
     11 O          11.6120  -26.0376   14.5100 O.3     1  UNL1       -0.4268
     12 C          11.5590  -29.5968   14.0868 C.ar    1  UNL1        0.0595
     13 C          10.6869  -30.3996   14.8103 C.ar    1  UNL1        0.0175
     14 C          10.4556  -31.7019   14.4120 C.ar    1  UNL1        0.0332
     15 C          11.0968  -32.2099   13.2954 C.ar    1  UNL1        0.1675
     16 C          11.9725  -31.4127   12.5742 C.ar    1  UNL1        0.1686
     17 C          12.2060  -30.1079   12.9702 C.ar    1  UNL1        0.0470
     18 F          12.5982  -31.9102   11.4851 F       1  UNL1       -0.2018
     19 F          10.8693  -33.4841   12.9080 F       1  UNL1       -0.2018
     20 C          17.1878  -25.7492   16.4329 C.3     1  UNL1        0.1463
     21 O          16.3448  -25.8659   17.5808 O.3     1  UNL1       -0.3813
     22 H          15.7303  -25.1159   17.6082 H       1  UNL1        0.2105
     23 C          17.9806  -24.4431   16.5130 C.3     1  UNL1        0.1266
     24 N          19.4041  -24.7454   16.6819 N.3     1  UNL1       -0.1530
     25 S          20.3423  -23.7938   17.6598 S.O2    1  UNL1        0.0634
     26 O          19.6124  -23.6052   18.8643 O.2     1  UNL1       -0.1528
     27 O          21.6481  -24.3541   17.6402 O.2     1  UNL1       -0.1528
     28 C          20.4610  -22.2132   16.8901 C.ar    1  UNL1        0.1224
     29 C          20.0907  -21.0772   17.5860 C.ar    1  UNL1        0.0230
     30 C          20.1882  -19.8362   16.9868 C.ar    1  UNL1        0.0383
     31 C          20.6470  -19.7316   15.6817 C.ar    1  UNL1        0.1388
     32 C          21.0125  -20.8735   14.9838 C.ar    1  UNL1        0.0383
     33 C          20.9189  -22.1115   15.5895 C.ar    1  UNL1        0.0230
     34 O          20.7376  -18.5126   15.0878 O.3     1  UNL1       -0.4714
     35 C          21.6653  -18.3843   14.0085 C.3     1  UNL1        0.2525
     36 C          19.9976  -25.8898   15.9857 C.3     1  UNL1        0.0958
     37 C          21.6065  -25.3505   14.1519 C.3     1  UNL1        0.0015
     38 C          20.1315  -25.5671   14.4962 C.3     1  UNL1        0.0178
     39 C          19.5807  -26.7314   13.6705 C.3     1  UNL1        0.0015
     40 C          16.1067  -24.3065   14.7032 C.3     1  UNL1        0.0484
     41 C          16.9077  -24.0524   13.4523 C.ar    1  UNL1       -0.0204
     42 C          16.7526  -24.8762   12.3531 C.ar    1  UNL1       -0.0042
     43 C          17.4835  -24.6400   11.2038 C.ar    1  UNL1       -0.0003
     44 C          18.3779  -23.5869   11.1577 C.ar    1  UNL1       -0.0000
     45 C          18.5368  -22.7664   12.2587 C.ar    1  UNL1       -0.0003
     46 C          17.8018  -22.9991   13.4060 C.ar    1  UNL1       -0.0042
@<TRIPOS>BOND
     1    37    38    1
     2    38    39    1
     3    38    36    1
     4    36    24    1
     5    24    23    1
     6    24    25    1
     7    23    20    1
     8    20     1    1
     9    20    21    1
    10     1    40    1
    11     1     2    1
    12    40    41    1
    13    41    46   ar
    14    41    42   ar
    15    42    43   ar
    16    43    44   ar
    17    44    45   ar
    18    45    46   ar
    19     2     3   am
    20     3     4    2
    21     3     6    1
    22     6    11    1
    23     6     7    1
    24     7     8    1
    25     8     9   am
    26     8    12    1
    27     9    10    2
    28     9    11    1
    29    12    17   ar
    30    12    13   ar
    31    13    14   ar
    32    14    15   ar
    33    15    16   ar
    34    15    19    1
    35    16    17   ar
    36    16    18    1
    37    25    26    2
    38    25    27    2
    39    25    28    1
    40    28    33   ar
    41    28    29   ar
    42    29    30   ar
    43    30    31   ar
    44    31    32   ar
    45    31    34    1
    46    32    33   ar
    47    34    35    1
    48     2     5    1
    49    21    22    1
#	Name:			ZINC14951356
#	Creating user name:	trannguyen
#	Creation time:		Wed Dec  7 14:36:19 2022


#	Modifying user name:	trannguyen
#	Modification time:	Wed Dec  7 14:36:19 2022

@<TRIPOS>MOLECULE
ZINC14951356
 44 47 0 0 0
SMALL
GASTEIGER

@<TRIPOS>ATOM
      1 C          16.2766  -25.6966   15.1043 C.3     1  UNL1        0.1042
      2 N          14.9608  -26.2171   15.4839 N.am    1  UNL1       -0.3002
      3 C          14.1686  -26.7883   14.5553 C.2     1  UNL1        0.2647
      4 O          14.5448  -26.8716   13.4053 O.2     1  UNL1       -0.2711
      5 H          14.6553  -26.1495   16.4173 H       1  UNL1        0.1496
      6 C          12.8150  -27.3236   14.9458 C.3     1  UNL1        0.2656
      7 C          12.8443  -28.8623   15.0224 C.3     1  UNL1        0.1546
      8 N          11.8668  -29.2823   14.0066 N.am    1  UNL1       -0.2208
      9 C          11.3472  -28.1912   13.4275 C.2     1  UNL1        0.4092
     10 O          10.5103  -28.2421   12.5481 O.2     1  UNL1       -0.2258
     11 O          11.8345  -27.0408   13.9059 O.3     1  UNL1       -0.4268
     12 C          11.5332  -30.6055   13.6961 C.ar    1  UNL1        0.0571
     13 C          12.1973  -31.2686   12.6727 C.ar    1  UNL1        0.0150
     14 C          11.8687  -32.5759   12.3716 C.ar    1  UNL1        0.0013
     15 C          10.8726  -33.2211   13.0813 C.ar    1  UNL1        0.0001
     16 C          10.2061  -32.5619   14.0978 C.ar    1  UNL1        0.0013
     17 C          10.5334  -31.2562   14.4071 C.ar    1  UNL1        0.0150
     18 C          17.2403  -25.8364   16.2844 C.3     1  UNL1        0.1463
     19 O          16.5030  -26.1565   17.4660 O.3     1  UNL1       -0.3813
     20 H          15.8657  -25.4490   17.6509 H       1  UNL1        0.2105
     21 C          17.9879  -24.5176   16.4914 C.3     1  UNL1        0.1266
     22 N          19.4196  -24.7869   16.6459 N.3     1  UNL1       -0.1530
     23 S          20.3369  -23.8397   17.6477 S.O2    1  UNL1        0.0634
     24 O          19.5877  -23.6683   18.8429 O.2     1  UNL1       -0.1528
     25 O          21.6464  -24.3916   17.6420 O.2     1  UNL1       -0.1528
     26 C          20.4570  -22.2504   16.8963 C.ar    1  UNL1        0.1224
     27 C          20.0377  -21.1277   17.5857 C.ar    1  UNL1        0.0230
     28 C          20.1360  -19.8799   17.0009 C.ar    1  UNL1        0.0383
     29 C          20.6451  -19.7554   15.7164 C.ar    1  UNL1        0.1388
     30 C          21.0600  -20.8841   15.0247 C.ar    1  UNL1        0.0383
     31 C          20.9652  -22.1289   15.6162 C.ar    1  UNL1        0.0230
     32 O          20.7369  -18.5297   15.1365 O.3     1  UNL1       -0.4714
     33 C          21.6664  -18.3892   14.0601 C.3     1  UNL1        0.2525
     34 C          20.0397  -25.8941   15.9140 C.3     1  UNL1        0.0958
     35 C          21.6724  -25.3085   14.1157 C.3     1  UNL1        0.0015
     36 C          20.1910  -25.5103   14.4407 C.3     1  UNL1        0.0178
     37 C          19.6236  -26.6268   13.5619 C.3     1  UNL1        0.0015
     38 C          16.1503  -24.2208   14.7211 C.3     1  UNL1        0.0484
     39 C          16.9380  -23.9593   13.4632 C.ar    1  UNL1       -0.0204
     40 C          17.8760  -22.9442   13.4337 C.ar    1  UNL1       -0.0042
     41 C          18.5983  -22.7039   12.2797 C.ar    1  UNL1       -0.0003
     42 C          18.3788  -23.4752   11.1537 C.ar    1  UNL1       -0.0000
     43 C          17.4446  -24.4937   11.1850 C.ar    1  UNL1       -0.0003
     44 C          16.7223  -24.7340   12.3389 C.ar    1  UNL1       -0.0042
@<TRIPOS>BOND
     1    35    36    1
     2    36    37    1
     3    36    34    1
     4    34    22    1
     5    22    21    1
     6    22    23    1
     7    21    18    1
     8    18     1    1
     9    18    19    1
    10     1    38    1
    11     1     2    1
    12    38    39    1
    13    39    44   ar
    14    39    40   ar
    15    40    41   ar
    16    41    42   ar
    17    42    43   ar
    18    43    44   ar
    19     2     3   am
    20     3     4    2
    21     3     6    1
    22     6    11    1
    23     6     7    1
    24     7     8    1
    25     8     9   am
    26     8    12    1
    27     9    10    2
    28     9    11    1
    29    12    17   ar
    30    12    13   ar
    31    13    14   ar
    32    14    15   ar
    33    15    16   ar
    34    16    17   ar
    35    23    24    2
    36    23    25    2
    37    23    26    1
    38    26    31   ar
    39    26    27   ar
    40    27    28   ar
    41    28    29   ar
    42    29    30   ar
    43    29    32    1
    44    30    31   ar
    45    32    33    1
    46     2     5    1
    47    19    20    1
#	Name:			ZINC14957098
#	Creating user name:	trannguyen
#	Creation time:		Wed Dec  7 14:36:19 2022


#	Modifying user name:	trannguyen
#	Modification time:	Wed Dec  7 14:36:19 2022

@<TRIPOS>MOLECULE
ZINC14957098
 29 31 0 0 0
SMALL
GASTEIGER

@<TRIPOS>ATOM
      1 C          21.8048  -18.1789   12.6737 C.3     1  UNL1        0.0310
      2 C          21.3249  -19.2375   13.6330 C.ar    1  UNL1       -0.0220
      3 C          21.5208  -19.0794   14.9947 C.ar    1  UNL1       -0.0054
      4 C          21.0841  -20.0453   15.8752 C.ar    1  UNL1        0.0151
      5 C          20.4505  -21.1916   15.4175 C.ar    1  UNL1        0.1345
      6 C          20.2492  -21.3473   14.0378 C.ar    1  UNL1        0.0355
      7 C          20.6898  -20.3659   13.1557 C.ar    1  UNL1       -0.0012
      8 O          20.1153  -22.0155   16.4471 O.3     1  UNL1       -0.4774
      9 C          20.1127  -21.2645   17.6732 C.3     1  UNL1        0.1897
     10 C          21.1373  -20.1410   17.3880 C.3     1  UNL1        0.0747
     11 C          19.5670  -22.5584   13.5196 C.ar    1  UNL1        0.0305
     12 C          18.2080  -22.5227   13.2339 C.ar    1  UNL1        0.0052
     13 C          17.5736  -23.6658   12.7402 C.ar    1  UNL1        0.0349
     14 C          18.3084  -24.8419   12.5482 C.ar    1  UNL1        0.0051
     15 C          19.6550  -24.8711   12.8398 C.ar    1  UNL1        0.0297
     16 C          20.2895  -23.7388   13.3236 C.ar    1  UNL1        0.1402
     17 F          21.6101  -23.7754   13.6062 F       1  UNL1       -0.2042
     18 C          16.1367  -23.6352   12.4294 C.2     1  UNL1        0.1735
     19 O          15.3251  -23.5252   13.3238 O.2     1  UNL1       -0.2913
     20 C          15.6727  -23.7406   10.9995 C.3     1  UNL1        0.0773
     21 C          20.5746  -22.1352   18.8434 C.3     1  UNL1        0.1336
     22 N          20.1603  -23.5215   18.6139 N.am    1  UNL1       -0.3011
     23 C          21.0826  -24.5038   18.5808 C.2     1  UNL1        0.2234
     24 O          22.2554  -24.2400   18.7412 O.2     1  UNL1       -0.2751
     25 H          19.2082  -23.7356   18.4838 H       1  UNL1        0.1495
     26 C          20.6565  -25.9299   18.3446 C.3     1  UNL1        0.0967
     27 C          19.1426  -25.9807   18.1288 C.3     1  UNL1        0.0671
     28 S          18.7856  -25.9957   16.3504 S.3     1  UNL1       -0.1388
     29 C          17.3419  -24.9102   16.1835 C.3     1  UNL1        0.0692
@<TRIPOS>BOND
     1     1     2    1
     2     2     7   ar
     3     2     3   ar
     4     3     4   ar
     5     4    10    1
     6     4     5   ar
     7     5     6   ar
     8     5     8    1
     9     6     7   ar
    10     6    11    1
    11    11    16   ar
    12    11    12   ar
    13    12    13   ar
    14    13    14   ar
    15    13    18    1
    16    14    15   ar
    17    15    16   ar
    18    16    17    1
    19    18    19    2
    20    18    20    1
    21     8     9    1
    22     9    10    1
    23     9    21    1
    24    21    22    1
    25    22    23   am
    26    23    24    2
    27    23    26    1
    28    26    27    1
    29    27    28    1
    30    28    29    1
    31    22    25    1
#	Name:			ZINC14965985
#	Creating user name:	trannguyen
#	Creation time:		Wed Dec  7 14:36:19 2022


#	Modifying user name:	trannguyen
#	Modification time:	Wed Dec  7 14:36:19 2022

@<TRIPOS>MOLECULE
ZINC14965985
 46 49 0 0 0
SMALL
GASTEIGER

@<TRIPOS>ATOM
      1 C          15.6087  -25.5089   15.5565 C.2     1  UNL1        0.2438
      2 O          14.7284  -24.6987   15.3582 O.2     1  UNL1       -0.2731
      3 N          15.3370  -26.6509   16.2185 N.am    1  UNL1       -0.2717
      4 C          16.2354  -27.8073   16.4427 C.3     1  UNL1        0.0939
      5 C          15.9431  -28.2527   17.8918 C.3     1  UNL1        0.0220
      6 C          14.5166  -27.7432   18.1849 C.3     1  UNL1        0.0288
      7 C          14.0741  -27.0319   16.8929 C.3     1  UNL1        0.1517
      8 C          14.8022  -29.2451   18.1250 C.3     1  UNL1        0.0037
      9 C          14.2779  -30.0147   16.9109 C.3     1  UNL1        0.0001
     10 C          14.7980  -30.0170   19.4460 C.3     1  UNL1        0.0001
     11 C          13.2782  -27.9726   16.0253 C.2     1  UNL1        0.2408
     12 O          13.7784  -28.4467   15.0272 O.2     1  UNL1       -0.2733
     13 N          12.0106  -28.2869   16.3583 N.am    1  UNL1       -0.2979
     14 H          11.5806  -27.8484   17.1277 H       1  UNL1        0.1498
     15 C          11.2727  -29.2812   15.5753 C.3     1  UNL1        0.1385
     16 C          10.0598  -28.6345   14.9574 C.2     1  UNL1        0.2432
     17 O           8.9735  -28.7796   15.4648 O.2     1  UNL1       -0.2848
     18 C          10.2009  -27.8155   13.7196 C.2     1  UNL1        0.2793
     19 O          11.0056  -26.9077   13.6811 O.2     1  UNL1       -0.2672
     20 N           9.4352  -28.0833   12.6433 N.am    1  UNL1       -0.3229
     21 H           8.7824  -28.8197   12.6745 H       1  UNL1        0.1453
     22 H           9.5285  -27.5426   11.8260 H       1  UNL1        0.1453
     23 C          10.8303  -30.4248   16.4903 C.3     1  UNL1        0.0277
     24 C          10.8292  -29.9445   17.9430 C.3     1  UNL1        0.0021
     25 C          11.2045  -30.9608   19.0234 C.3     1  UNL1        0.0001
     26 C           9.7513  -30.5065   18.8721 C.3     1  UNL1        0.0001
     27 C          17.0066  -25.2388   15.0623 C.3     1  UNL1        0.1487
     28 C          16.9501  -24.2811   13.8705 C.3     1  UNL1        0.0269
     29 C          16.5201  -25.0492   12.6190 C.3     1  UNL1        0.0021
     30 C          16.4635  -24.0915   11.4272 C.3     1  UNL1        0.0001
     31 C          17.8469  -23.4788   11.1993 C.3     1  UNL1        0.0000
     32 C          18.2769  -22.7107   12.4507 C.3     1  UNL1        0.0001
     33 C          18.3334  -23.6684   13.6425 C.3     1  UNL1        0.0021
     34 C          18.9418  -25.2175   16.5428 C.2     1  UNL1        0.2406
     35 O          19.2719  -26.2898   16.0823 O.2     1  UNL1       -0.2733
     36 N          17.7963  -24.6340   16.1378 N.am    1  UNL1       -0.2970
     37 H          17.4903  -23.8014   16.5648 H       1  UNL1        0.1499
     38 C          19.8125  -24.5374   17.5677 C.3     1  UNL1        0.1485
     39 N          19.4364  -23.1251   17.6682 N.am    1  UNL1       -0.2983
     40 C          20.2884  -22.1693   17.2474 C.2     1  UNL1        0.2233
     41 O          21.3664  -22.4784   16.7857 O.2     1  UNL1       -0.2751
     42 C          19.9015  -20.7165   17.3508 C.3     1  UNL1        0.0946
     43 H          18.5613  -22.8742   18.0431 H       1  UNL1        0.1498
     44 C          20.9707  -25.2984   19.6467 C.3     1  UNL1        0.0022
     45 C          19.6232  -25.2137   18.9270 C.3     1  UNL1        0.0269
     46 C          18.6444  -24.3956   19.7718 C.3     1  UNL1        0.0022
@<TRIPOS>BOND
     1    44    45    1
     2    45    46    1
     3    45    38    1
     4    38    34    1
     5    38    39    1
     6    34    35    2
     7    34    36   am
     8    36    27    1
     9    27    28    1
    10    27     1    1
    11    28    33    1
    12    28    29    1
    13    29    30    1
    14    30    31    1
    15    31    32    1
    16    32    33    1
    17     1     2    2
    18     1     3   am
    19     3     7    1
    20     3     4    1
    21     4     5    1
    22     5     8    1
    23     5     6    1
    24     6     7    1
    25     6     8    1
    26     7    11    1
    27    11    12    2
    28    11    13   am
    29    13    15    1
    30    15    23    1
    31    15    16    1
    32    23    24    1
    33    24    26    1
    34    24    25    1
    35    25    26    1
    36    16    17    2
    37    16    18    1
    38    18    19    2
    39    18    20   am
    40     8     9    1
    41     8    10    1
    42    39    40   am
    43    40    41    2
    44    40    42    1
    45    36    37    1
    46    13    14    1
    47    20    21    1
    48    20    22    1
    49    39    43    1
#	Name:			ZINC14971543
#	Creating user name:	trannguyen
#	Creation time:		Wed Dec  7 14:36:19 2022


#	Modifying user name:	trannguyen
#	Modification time:	Wed Dec  7 14:36:19 2022

@<TRIPOS>MOLECULE
ZINC14971543
 46 50 0 0 0
SMALL
GASTEIGER

@<TRIPOS>ATOM
      1 C          20.9945  -24.5800   18.7352 C.2     1  UNL1        0.2403
      2 O          22.1812  -24.3296   18.7240 O.2     1  UNL1       -0.2733
      3 N          20.5762  -25.8566   18.8432 N.am    1  UNL1       -0.3027
      4 H          19.6129  -26.0599   18.8525 H       1  UNL1        0.1495
      5 C          19.9878  -23.4637   18.6286 C.3     1  UNL1        0.1488
      6 C          20.6610  -21.7574   17.0247 C.2     1  UNL1        0.2462
      7 O          21.2266  -21.1731   17.9282 O.2     1  UNL1       -0.2701
      8 N          20.0119  -22.9124   17.2715 N.am    1  UNL1       -0.2948
      9 H          19.5538  -23.3857   16.5397 H       1  UNL1        0.1501
     10 C          20.0524  -21.3356   13.3388 C.ar    1  UNL1        0.1389
     11 C          20.7403  -20.1560   13.0873 C.ar    1  UNL1        0.0369
     12 C          21.3904  -19.4967   14.1140 C.ar    1  UNL1        0.0033
     13 C          21.3694  -20.0129   15.3938 C.ar    1  UNL1        0.0047
     14 C          20.6853  -21.2010   15.6550 C.ar    1  UNL1        0.0564
     15 C          20.0249  -21.8623   14.6189 C.ar    1  UNL1        0.0414
     16 C          18.2830  -22.7804   12.6798 C.3     1  UNL1        0.2525
     17 O          19.4104  -21.9765   12.3267 O.3     1  UNL1       -0.4714
     18 C          18.5903  -24.0064   18.9339 C.3     1  UNL1        0.0290
     19 C          17.7146  -23.8921   17.6845 C.3     1  UNL1        0.0022
     20 C          17.4419  -25.2889   17.1231 C.3     1  UNL1        0.0001
     21 C          16.4595  -25.1861   15.9546 C.3     1  UNL1        0.0000
     22 C          16.1868  -26.5830   15.3932 C.3     1  UNL1        0.0000
     23 C          15.5851  -27.4647   16.4893 C.3     1  UNL1        0.0000
     24 C          16.5675  -27.5675   17.6578 C.3     1  UNL1        0.0000
     25 C          16.8401  -26.1706   18.2191 C.3     1  UNL1        0.0000
     26 C          21.5548  -26.9419   18.9468 C.3     1  UNL1        0.0972
     27 C          21.0977  -27.9406   20.0120 C.3     1  UNL1        0.0822
     28 C          22.1606  -29.0281   20.1812 C.3     1  UNL1        0.1073
     29 C          22.5521  -31.1576   21.2670 C.3     1  UNL1        0.1380
     30 C          22.1574  -32.0211   22.4680 C.3     1  UNL1        0.2029
     31 O          20.7487  -32.2648   22.4313 O.3     1  UNL1       -0.3412
     32 C          19.9577  -31.0734   22.4508 C.3     1  UNL1        0.2029
     33 C          20.3300  -30.2003   21.2496 C.3     1  UNL1        0.1380
     34 N          21.7762  -29.9006   21.3118 N.4     1  UNL1        0.2798
     35 H          21.9783  -29.4162   22.1864 H       1  UNL1        0.2069
     36 C          21.6721  -27.6535   17.5975 C.3     1  UNL1        0.1105
     37 N          20.3326  -27.8385   17.0235 N.pl3   1  UNL1       -0.3057
     38 C          20.0406  -29.2727   16.8105 C.3     1  UNL1        0.0955
     39 C          19.1094  -29.2488   15.5767 C.3     1  UNL1        0.0491
     40 C          19.5045  -27.9612   14.8814 C.ar    1  UNL1       -0.0049
     41 C          20.2218  -27.1882   15.7864 C.ar    1  UNL1        0.0440
     42 C          20.7091  -25.9472   15.3817 C.ar    1  UNL1        0.0165
     43 C          20.4753  -25.4934   14.1000 C.ar    1  UNL1        0.0309
     44 C          19.7549  -26.2679   13.2068 C.ar    1  UNL1        0.1399
     45 C          19.2701  -27.5040   13.6017 C.ar    1  UNL1        0.0266
     46 F          19.5259  -25.8196   11.9532 F       1  UNL1       -0.2042
@<TRIPOS>UNITY_ATOM_ATTR
34 1
charge 1
@<TRIPOS>BOND
     1    16    17    1
     2    17    10    1
     3    10    15   ar
     4    10    11   ar
     5    11    12   ar
     6    12    13   ar
     7    13    14   ar
     8    14    15   ar
     9    14     6    1
    10     6     7    2
    11     6     8   am
    12     8     5    1
    13     5    18    1
    14     5     1    1
    15    18    19    1
    16    19    20    1
    17    20    25    1
    18    20    21    1
    19    21    22    1
    20    22    23    1
    21    23    24    1
    22    24    25    1
    23     1     2    2
    24     1     3   am
    25     3    26    1
    26    26    27    1
    27    26    36    1
    28    27    28    1
    29    28    34    1
    30    29    30    1
    31    29    34    1
    32    30    31    1
    33    31    32    1
    34    32    33    1
    35    33    34    1
    36    36    37    1
    37    37    41    1
    38    37    38    1
    39    38    39    1
    40    39    40    1
    41    40    45   ar
    42    40    41   ar
    43    41    42   ar
    44    42    43   ar
    45    43    44   ar
    46    44    45   ar
    47    44    46    1
    48     8     9    1
    49     3     4    1
    50    34    35    1
#	Name:			ZINC14971782
#	Creating user name:	trannguyen
#	Creation time:		Wed Dec  7 14:36:20 2022


#	Modifying user name:	trannguyen
#	Modification time:	Wed Dec  7 14:36:20 2022

@<TRIPOS>MOLECULE
ZINC14971782
 40 42 0 0 0
SMALL
GASTEIGER

@<TRIPOS>ATOM
      1 N          18.2097  -24.1297   14.7553 N.am    1  UNL1       -0.3040
      2 C          18.5562  -24.3109   16.0450 C.2     1  UNL1        0.2266
      3 O          17.7207  -24.6518   16.8553 O.2     1  UNL1       -0.2747
      4 H          18.8880  -23.8530   14.0975 H       1  UNL1        0.1494
      5 C          16.8236  -24.3445   14.3321 C.3     1  UNL1        0.0910
      6 C          17.7673  -22.6747   12.7310 C.3     1  UNL1        0.0018
      7 C          16.5452  -23.5323   13.0657 C.3     1  UNL1        0.0197
      8 C          16.2557  -24.4836   11.9029 C.3     1  UNL1        0.0018
      9 C          16.6030  -25.8307   14.0435 C.3     1  UNL1        0.1068
     10 N          15.6841  -26.3901   15.0379 N.pl3   1  UNL1       -0.3313
     11 H          15.9985  -26.5678   15.9537 H       1  UNL1        0.1469
     12 C          14.3593  -26.6720   14.6860 C.ar    1  UNL1        0.0449
     13 C          13.3164  -26.0065   15.3164 C.ar    1  UNL1        0.0174
     14 C          12.0094  -26.2812   14.9644 C.ar    1  UNL1        0.0384
     15 C          11.7381  -27.2301   13.9899 C.ar    1  UNL1        0.1469
     16 C          12.7790  -27.8992   13.3633 C.ar    1  UNL1        0.0384
     17 C          14.0868  -27.6216   13.7101 C.ar    1  UNL1        0.0174
     18 O          10.4506  -27.5043   13.6482 O.3     1  UNL1       -0.4045
     19 C           9.8457  -28.6452   14.2601 C.3     1  UNL1        0.5753
     20 F           9.8358  -28.4789   15.6491 F       1  UNL1       -0.1328
     21 F           8.5325  -28.7812   13.7974 F       1  UNL1       -0.1328
     22 F          10.5766  -29.7923   13.9329 F       1  UNL1       -0.1328
     23 C          19.9819  -24.0900   16.4803 C.3     1  UNL1        0.1077
     24 C          20.2708  -22.6115   16.5228 C.ar    1  UNL1       -0.0132
     25 C          21.0571  -22.0335   15.5434 C.ar    1  UNL1       -0.0007
     26 C          21.3186  -20.6774   15.5770 C.ar    1  UNL1        0.0366
     27 C          20.8014  -19.8976   16.6012 C.ar    1  UNL1        0.1387
     28 C          20.0173  -20.4810   17.5859 C.ar    1  UNL1        0.0366
     29 C          19.7537  -21.8364   17.5444 C.ar    1  UNL1       -0.0007
     30 O          21.0626  -18.5645   16.6400 O.3     1  UNL1       -0.4714
     31 C          22.1001  -18.0814   15.7843 C.3     1  UNL1        0.2525
     32 C          20.9290  -24.7663   15.4869 C.3     1  UNL1        0.0987
     33 C          20.9231  -26.2550   15.7211 C.2     1  UNL1        0.2266
     34 O          21.2013  -26.6979   16.8153 O.2     1  UNL1       -0.2748
     35 N          20.6084  -27.0941   14.7145 N.am    1  UNL1       -0.2744
     36 C          20.2613  -26.5800   13.3801 C.3     1  UNL1        0.1255
     37 C          21.1133  -27.3278   12.3420 C.3     1  UNL1        0.1636
     38 O          20.9626  -28.7358   12.5383 O.3     1  UNL1       -0.3501
     39 C          21.4262  -29.2028   13.8074 C.3     1  UNL1        0.1636
     40 C          20.5957  -28.5514   14.9190 C.3     1  UNL1        0.1255
@<TRIPOS>BOND
     1     6     7    1
     2     7     8    1
     3     7     5    1
     4     5     9    1
     5     5     1    1
     6     9    10    1
     7    10    12    1
     8    12    17   ar
     9    12    13   ar
    10    13    14   ar
    11    14    15   ar
    12    15    16   ar
    13    15    18    1
    14    16    17   ar
    15    18    19    1
    16    19    20    1
    17    19    21    1
    18    19    22    1
    19     1     2   am
    20     2     3    2
    21     2    23    1
    22    23    32    1
    23    23    24    1
    24    32    33    1
    25    33    34    2
    26    33    35   am
    27    35    40    1
    28    35    36    1
    29    36    37    1
    30    37    38    1
    31    38    39    1
    32    39    40    1
    33    24    29   ar
    34    24    25   ar
    35    25    26   ar
    36    26    27   ar
    37    27    28   ar
    38    27    30    1
    39    28    29   ar
    40    30    31    1
    41    10    11    1
    42     1     4    1
#	Name:			ZINC14971791
#	Creating user name:	trannguyen
#	Creation time:		Wed Dec  7 14:36:19 2022


#	Modifying user name:	trannguyen
#	Modification time:	Wed Dec  7 14:36:19 2022

@<TRIPOS>MOLECULE
ZINC14971791
 42 44 0 0 0
SMALL
GASTEIGER

@<TRIPOS>ATOM
      1 N          21.3730  -21.4402   14.5637 N.am    1  UNL1       -0.3040
      2 C          21.9550  -22.6555   14.5392 C.2     1  UNL1        0.2266
      3 O          22.8386  -22.9208   15.3264 O.2     1  UNL1       -0.2747
      4 H          20.6557  -21.2249   13.9246 H       1  UNL1        0.1494
      5 C          21.8076  -20.4395   15.5415 C.3     1  UNL1        0.0910
      6 C          21.3378  -19.1755   13.4381 C.3     1  UNL1        0.0018
      7 C          21.8019  -19.0547   14.8909 C.3     1  UNL1        0.0197
      8 C          20.8478  -18.1356   15.6565 C.3     1  UNL1        0.0018
      9 C          20.8523  -20.4455   16.7365 C.3     1  UNL1        0.1068
     10 N          21.3574  -21.3629   17.7609 N.pl3   1  UNL1       -0.3313
     11 H          22.1984  -21.1609   18.2311 H       1  UNL1        0.1469
     12 C          20.6444  -22.5265   18.0710 C.ar    1  UNL1        0.0449
     13 C          21.3037  -23.6211   18.6144 C.ar    1  UNL1        0.0174
     14 C          20.5982  -24.7669   18.9255 C.ar    1  UNL1        0.0384
     15 C          19.2337  -24.8287   18.6844 C.ar    1  UNL1        0.1469
     16 C          18.5753  -23.7377   18.1368 C.ar    1  UNL1        0.0384
     17 C          19.2783  -22.5890   17.8304 C.ar    1  UNL1        0.0174
     18 O          18.5410  -25.9597   18.9855 O.3     1  UNL1       -0.4045
     19 C          18.7337  -27.0864   18.1280 C.3     1  UNL1        0.5753
     20 F          19.7984  -27.8585   18.6050 F       1  UNL1       -0.1328
     21 F          17.5690  -27.8609   18.1066 F       1  UNL1       -0.1328
     22 F          19.0227  -26.6429   16.8331 F       1  UNL1       -0.1328
     23 C          21.5079  -23.6849   13.5334 C.3     1  UNL1        0.1077
     24 C          20.0024  -23.7499   13.5165 C.ar    1  UNL1       -0.0134
     25 C          19.3260  -24.3762   14.5466 C.ar    1  UNL1       -0.0039
     26 C          17.9448  -24.4316   14.5335 C.ar    1  UNL1        0.0035
     27 C          17.2405  -23.8698   13.4850 C.ar    1  UNL1        0.0714
     28 C          17.9171  -23.2482   12.4523 C.ar    1  UNL1        0.0035
     29 C          19.2980  -23.1881   12.4680 C.ar    1  UNL1       -0.0039
     30 C          15.7350  -23.9357   13.4677 C.3     1  UNL1        0.4186
     31 F          15.2587  -24.0630   14.7768 F       1  UNL1       -0.1659
     32 F          15.2235  -22.7651   12.8971 F       1  UNL1       -0.1659
     33 F          15.3253  -25.0400   12.7128 F       1  UNL1       -0.1659
     34 C          22.0732  -25.0534   13.9186 C.3     1  UNL1        0.0987
     35 C          23.2483  -25.3789   13.0330 C.2     1  UNL1        0.2266
     36 O          24.1191  -24.5540   12.8535 O.2     1  UNL1       -0.2748
     37 N          23.3315  -26.5866   12.4406 N.am    1  UNL1       -0.2744
     38 C          22.2905  -27.6056   12.6482 C.3     1  UNL1        0.1255
     39 C          21.8455  -28.1235   11.2711 C.3     1  UNL1        0.1636
     40 O          22.9969  -28.5348   10.5303 O.3     1  UNL1       -0.3501
     41 C          23.9209  -27.4801   10.2514 C.3     1  UNL1        0.1636
     42 C          24.4693  -26.9273   11.5717 C.3     1  UNL1        0.1255
@<TRIPOS>BOND
     1     6     7    1
     2     7     8    1
     3     7     5    1
     4     5     9    1
     5     5     1    1
     6     9    10    1
     7    10    12    1
     8    12    17   ar
     9    12    13   ar
    10    13    14   ar
    11    14    15   ar
    12    15    16   ar
    13    15    18    1
    14    16    17   ar
    15    18    19    1
    16    19    20    1
    17    19    21    1
    18    19    22    1
    19     1     2   am
    20     2     3    2
    21     2    23    1
    22    23    34    1
    23    23    24    1
    24    34    35    1
    25    35    36    2
    26    35    37   am
    27    37    42    1
    28    37    38    1
    29    38    39    1
    30    39    40    1
    31    40    41    1
    32    41    42    1
    33    24    29   ar
    34    24    25   ar
    35    25    26   ar
    36    26    27   ar
    37    27    28   ar
    38    27    30    1
    39    28    29   ar
    40    30    31    1
    41    30    32    1
    42    30    33    1
    43    10    11    1
    44     1     4    1
#	Name:			ZINC14978244
#	Creating user name:	trannguyen
#	Creation time:		Wed Dec  7 14:36:19 2022


#	Modifying user name:	trannguyen
#	Modification time:	Wed Dec  7 14:36:19 2022

@<TRIPOS>MOLECULE
ZINC14978244
 42 46 0 0 0
SMALL
GASTEIGER

@<TRIPOS>ATOM
      1 C          20.1095  -26.4488   13.1190 C.ar    1  UNL1        0.1778
      2 C          21.0817  -26.6935   14.0423 C.ar    1  UNL1        0.1604
      3 N          22.0785  -27.3424   13.4381 N.ar    1  UNL1       -0.2394
      4 C          21.7823  -27.5214   12.1690 C.ar    1  UNL1        0.2892
      5 N          20.5517  -26.9804   11.9286 N.ar    1  UNL1       -0.2363
      6 H          22.9086  -27.6415   13.8749 H       1  UNL1        0.3111
      7 H          20.0725  -26.9722   11.0687 H       1  UNL1        0.3114
      8 C          16.4204  -24.4496   13.7883 C.ar    1  UNL1        0.1387
      9 C          17.3763  -23.8793   12.9583 C.ar    1  UNL1        0.0370
     10 C          18.5746  -24.5245   12.7388 C.ar    1  UNL1        0.0068
     11 C          18.8261  -25.7533   13.3520 C.ar    1  UNL1        0.0421
     12 C          17.8621  -26.3235   14.1854 C.ar    1  UNL1        0.0068
     13 C          16.6663  -25.6717   14.3996 C.ar    1  UNL1        0.0370
     14 C          14.4073  -24.3182   15.0463 C.3     1  UNL1        0.2525
     15 O          15.2406  -23.8101   14.0024 O.3     1  UNL1       -0.4714
     16 C          22.6359  -28.2003   11.1715 C.ar    1  UNL1        0.0804
     17 C          22.3758  -29.5236   10.8108 C.ar    1  UNL1        0.0074
     18 C          23.1728  -30.1495    9.8747 C.ar    1  UNL1        0.0002
     19 C          24.2350  -29.4724    9.3023 C.ar    1  UNL1        0.0000
     20 C          24.5018  -28.1626    9.6596 C.ar    1  UNL1        0.0002
     21 C          23.7091  -27.5230   10.5901 C.ar    1  UNL1        0.0074
     22 C          21.0383  -26.2981   15.4959 C.3     1  UNL1        0.0918
     23 C          20.8555  -27.5479   16.3592 C.3     1  UNL1        0.1012
     24 N          20.8973  -27.1739   17.7750 N.3     1  UNL1       -0.1687
     25 H          21.6051  -26.4453   17.8663 H       1  UNL1        0.1499
     26 S          19.5317  -26.6101   18.5231 S.O2    1  UNL1        0.0990
     27 O          18.4266  -27.1725   17.8289 O.2     1  UNL1       -0.1411
     28 O          19.7279  -26.7934   19.9185 O.2     1  UNL1       -0.1411
     29 N          19.4710  -24.9756   18.2643 N.3     1  UNL1       -0.1421
     30 C          20.5271  -24.0902   18.7780 C.3     1  UNL1        0.1183
     31 C          21.0238  -23.2100   17.6200 C.3     1  UNL1        0.1100
     32 N          19.8790  -22.5211   17.0096 N.pl3   1  UNL1       -0.3045
     33 C          18.9355  -23.4782   16.4165 C.3     1  UNL1        0.1100
     34 C          18.3564  -24.3700   17.5199 C.3     1  UNL1        0.1183
     35 C          20.3043  -21.5852   16.0631 C.ar    1  UNL1        0.0488
     36 C          20.1043  -21.8245   14.7093 C.ar    1  UNL1        0.0154
     37 C          20.5198  -20.8954   13.7759 C.ar    1  UNL1        0.0135
     38 C          21.1459  -19.7318   14.1869 C.ar    1  UNL1        0.0683
     39 C          21.3524  -19.4929   15.5352 C.ar    1  UNL1        0.0694
     40 C          20.9328  -20.4171   16.4738 C.ar    1  UNL1        0.0268
     41 CL         22.1382  -18.0321   16.0471 Cl      1  UNL1       -0.0813
     42 CL         21.6729  -18.5692   13.0103 Cl      1  UNL1       -0.0814
@<TRIPOS>UNITY_ATOM_ATTR
3 1
charge 1
@<TRIPOS>BOND
     1    14    15    1
     2    15     8    1
     3     8    13   ar
     4     8     9   ar
     5     9    10   ar
     6    10    11   ar
     7    11    12   ar
     8    11     1    1
     9    12    13   ar
    10     1     5   ar
    11     1     2   ar
    12     2     3   ar
    13     2    22    1
    14     3     4   ar
    15     4     5   ar
    16     4    16    1
    17    16    21   ar
    18    16    17   ar
    19    17    18   ar
    20    18    19   ar
    21    19    20   ar
    22    20    21   ar
    23    22    23    1
    24    23    24    1
    25    24    26    1
    26    26    27    2
    27    26    28    2
    28    26    29    1
    29    29    34    1
    30    29    30    1
    31    30    31    1
    32    31    32    1
    33    32    33    1
    34    32    35    1
    35    33    34    1
    36    35    40   ar
    37    35    36   ar
    38    36    37   ar
    39    37    38   ar
    40    38    39   ar
    41    38    42    1
    42    39    40   ar
    43    39    41    1
    44     3     6    1
    45     5     7    1
    46    24    25    1
#	Name:			ZINC14978278
#	Creating user name:	trannguyen
#	Creation time:		Wed Dec  7 14:36:19 2022


#	Modifying user name:	trannguyen
#	Modification time:	Wed Dec  7 14:36:19 2022

@<TRIPOS>MOLECULE
ZINC14978278
 42 46 0 0 0
SMALL
GASTEIGER

@<TRIPOS>ATOM
      1 C          19.9641  -29.4045   15.2643 C.3     1  UNL1        0.1012
      2 N          20.1646  -28.6666   16.5138 N.3     1  UNL1       -0.1687
      3 H          20.6778  -29.2851   17.1419 H       1  UNL1        0.1499
      4 S          18.8582  -28.1020   17.3607 S.O2    1  UNL1        0.0990
      5 O          17.9040  -27.6748   16.3983 O.2     1  UNL1       -0.1411
      6 O          18.5600  -29.0805   18.3470 O.2     1  UNL1       -0.1411
      7 C          18.5622  -26.2399   19.2996 C.3     1  UNL1        0.1160
      8 N          19.3507  -26.7457   18.1733 N.3     1  UNL1       -0.1437
      9 C          20.5749  -26.0517   17.7660 C.3     1  UNL1        0.1020
     10 C          21.2534  -25.4000   18.9885 C.3     1  UNL1        0.0409
     11 C          21.2684  -23.8875   18.6799 C.3     1  UNL1        0.0923
     12 N          20.1583  -23.6917   17.7123 N.pl3   1  UNL1       -0.3060
     13 C          20.2370  -24.8781   16.8216 C.3     1  UNL1        0.1085
     14 C          20.3285  -22.5092   16.9874 C.ar    1  UNL1        0.0488
     15 C          20.2381  -21.2805   17.6293 C.ar    1  UNL1        0.0154
     16 C          20.4066  -20.1130   16.9111 C.ar    1  UNL1        0.0135
     17 C          20.6647  -20.1657   15.5527 C.ar    1  UNL1        0.0683
     18 C          20.7554  -21.3888   14.9098 C.ar    1  UNL1        0.0694
     19 C          20.5937  -22.5604   15.6254 C.ar    1  UNL1        0.0268
     20 CL         21.0795  -21.4510   13.2054 Cl      1  UNL1       -0.0813
     21 CL         20.8747  -18.6961   14.6529 Cl      1  UNL1       -0.0814
     22 C          20.9739  -28.9235   14.2202 C.3     1  UNL1        0.0918
     23 C          20.5020  -27.6207   13.6279 C.ar    1  UNL1        0.1604
     24 C          21.1901  -26.8547   12.7359 C.ar    1  UNL1        0.1778
     25 N          20.3986  -25.7596   12.4594 N.ar    1  UNL1       -0.2358
     26 C          19.2551  -25.9015   13.1961 C.ar    1  UNL1        0.2954
     27 N          19.3384  -27.0208   13.8871 N.ar    1  UNL1       -0.2390
     28 H          20.6151  -25.0182   11.8489 H       1  UNL1        0.3114
     29 H          18.6480  -27.3621   14.5004 H       1  UNL1        0.3111
     30 C          22.5265  -27.1413   12.1740 C.ar    1  UNL1        0.0421
     31 C          23.6153  -26.3345   12.5106 C.ar    1  UNL1        0.0068
     32 C          24.8614  -26.6088   11.9887 C.ar    1  UNL1        0.0370
     33 C          25.0323  -27.6787   11.1203 C.ar    1  UNL1        0.1387
     34 C          23.9511  -28.4799   10.7784 C.ar    1  UNL1        0.0370
     35 C          22.7028  -28.2161   11.3003 C.ar    1  UNL1        0.0068
     36 O          26.2614  -27.9425   10.6039 O.3     1  UNL1       -0.4714
     37 C          26.6803  -29.3087   10.5916 C.3     1  UNL1        0.2525
     38 C          18.1232  -24.9632   13.2143 C.ar    1  UNL1        0.1099
     39 C          18.1082  -23.6096   12.9317 C.ar    1  UNL1        0.0145
     40 C          16.9108  -22.9373   13.0137 C.ar    1  UNL1        0.0077
     41 C          15.7914  -23.6153   13.3781 C.ar    1  UNL1        0.0357
     42 S          16.4110  -25.2724   13.6147 S.2     1  UNL1       -0.0791
@<TRIPOS>UNITY_ATOM_ATTR
27 1
charge 1
@<TRIPOS>BOND
     1     7     8    1
     2     8     9    1
     3     8     4    1
     4     9    13    1
     5     9    10    1
     6    10    11    1
     7    11    12    1
     8    12    13    1
     9    12    14    1
    10    14    19   ar
    11    14    15   ar
    12    15    16   ar
    13    16    17   ar
    14    17    18   ar
    15    17    21    1
    16    18    19   ar
    17    18    20    1
    18     4     5    2
    19     4     6    2
    20     4     2    1
    21     2     1    1
    22     1    22    1
    23    22    23    1
    24    23    27   ar
    25    23    24   ar
    26    24    25   ar
    27    24    30    1
    28    25    26   ar
    29    26    27   ar
    30    26    38    1
    31    38    42   ar
    32    38    39   ar
    33    39    40   ar
    34    40    41   ar
    35    41    42   ar
    36    30    35   ar
    37    30    31   ar
    38    31    32   ar
    39    32    33   ar
    40    33    34   ar
    41    33    36    1
    42    34    35   ar
    43    36    37    1
    44     2     3    1
    45    25    28    1
    46    27    29    1
#	Name:			ZINC15042611
#	Creating user name:	trannguyen
#	Creation time:		Wed Dec  7 14:36:20 2022


#	Modifying user name:	trannguyen
#	Modification time:	Wed Dec  7 14:36:20 2022

@<TRIPOS>MOLECULE
ZINC15042611
 31 33 0 0 0
SMALL
GASTEIGER

@<TRIPOS>ATOM
      1 N          17.8695  -25.3399   16.2718 N.am    1  UNL1       -0.2832
      2 C          18.8304  -25.9120   15.5198 C.2     1  UNL1        0.2377
      3 O          18.5281  -26.6777   14.6292 O.2     1  UNL1       -0.2738
      4 H          18.1161  -24.7801   17.0432 H       1  UNL1        0.1549
      5 C          13.8562  -25.9409   15.3318 C.ar    1  UNL1        0.0757
      6 C          14.5334  -24.8245   14.8319 C.ar    1  UNL1        0.0077
      7 C          15.8596  -24.6290   15.1448 C.ar    1  UNL1        0.0149
      8 C          16.5262  -25.5408   15.9574 C.ar    1  UNL1        0.0503
      9 C          15.8568  -26.6558   16.4523 C.ar    1  UNL1        0.0149
     10 C          14.5292  -26.8549   16.1479 C.ar    1  UNL1        0.0077
     11 C          12.4355  -26.1534   14.9992 C.2     1  UNL1        0.3412
     12 O          11.7198  -25.2024   14.7551 O.2     1  UNL1       -0.2449
     13 O          11.9308  -27.4024   14.9662 O.3     1  UNL1       -0.4454
     14 C          11.5501  -27.9254   13.6663 C.3     1  UNL1        0.2088
     15 C          12.9769  -29.7808   12.7922 C.3     1  UNL1        0.0040
     16 C          12.8082  -28.2618   12.8634 C.3     1  UNL1        0.0475
     17 C          20.2807  -25.6003   15.7855 C.3     1  UNL1        0.1544
     18 S          20.4433  -24.8289   17.4148 S.3     1  UNL1       -0.0184
     19 C          20.6014  -23.1397   16.9393 C.ar    1  UNL1        0.3186
     20 N          21.3938  -22.6800   15.9246 N.ar    1  UNL1       -0.2305
     21 C          21.2384  -21.3045   15.8730 C.ar    1  UNL1        0.1857
     22 C          21.7687  -20.3077   15.0680 C.ar    1  UNL1        0.0827
     23 C          21.4068  -18.9886   15.2777 C.ar    1  UNL1        0.1425
     24 C          20.5057  -18.6594   16.2852 C.ar    1  UNL1        0.0408
     25 C          19.9683  -19.6399   17.0882 C.ar    1  UNL1        0.0490
     26 C          20.3289  -20.9751   16.8911 C.ar    1  UNL1        0.1829
     27 N          19.9772  -22.1368   17.5051 N.ar    1  UNL1       -0.2306
     28 H          21.9680  -23.2252   15.3394 H       1  UNL1        0.3119
     29 H          19.3494  -22.2123   18.2597 H       1  UNL1        0.3119
     30 O          21.9301  -18.0101   14.4915 O.3     1  UNL1       -0.4713
     31 C          21.8739  -18.2138   13.0783 C.3     1  UNL1        0.2525
@<TRIPOS>UNITY_ATOM_ATTR
27 1
charge 1
@<TRIPOS>BOND
     1    15    16    1
     2    16    14    1
     3    14    13    1
     4    13    11    1
     5    11    12    2
     6    11     5    1
     7     5    10   ar
     8     5     6   ar
     9     6     7   ar
    10     7     8   ar
    11     8     9   ar
    12     8     1    1
    13     9    10   ar
    14     1     2   am
    15     2     3    2
    16     2    17    1
    17    17    18    1
    18    18    19    1
    19    19    27   ar
    20    19    20   ar
    21    20    21   ar
    22    21    26   ar
    23    21    22   ar
    24    22    23   ar
    25    23    24   ar
    26    23    30    1
    27    24    25   ar
    28    25    26   ar
    29    26    27   ar
    30    30    31    1
    31     1     4    1
    32    20    28    1
    33    27    29    1
#	Name:			ZINC15043886
#	Creating user name:	trannguyen
#	Creation time:		Wed Dec  7 14:36:20 2022


#	Modifying user name:	trannguyen
#	Modification time:	Wed Dec  7 14:36:20 2022

@<TRIPOS>MOLECULE
ZINC15043886
 39 42 0 0 0
SMALL
GASTEIGER

@<TRIPOS>ATOM
      1 C          13.9597  -26.1284   15.2743 C.3     1  UNL1        0.1917
      2 C          12.9313  -27.5742   13.6273 C.3     1  UNL1        0.1063
      3 C          13.0785  -28.9086   12.8924 C.3     1  UNL1        0.0702
      4 C          12.9729  -30.0556   13.9012 C.3     1  UNL1        0.0886
      5 C          14.0501  -29.8809   14.9753 C.3     1  UNL1        0.0702
      6 C          13.8748  -28.5184   15.6498 C.3     1  UNL1        0.1063
      7 N          14.0115  -27.4570   14.6300 N.4     1  UNL1        0.2829
      8 H          14.9108  -27.5639   14.1608 H       1  UNL1        0.2072
      9 C          13.1768  -31.3698   13.1925 C.2     1  UNL1        0.2261
     10 O          13.2710  -32.3958   13.8326 O.2     1  UNL1       -0.2748
     11 N          13.2545  -31.4052   11.8474 N.am    1  UNL1       -0.2816
     12 H          13.1126  -30.5832   11.3244 H       1  UNL1        0.1549
     13 C          13.5371  -32.6118   11.1934 C.ar    1  UNL1        0.0845
     14 C          14.8230  -32.8749   10.7445 C.ar    1  UNL1        0.0177
     15 C          15.0994  -34.0657   10.0998 C.ar    1  UNL1        0.0015
     16 C          14.0969  -34.9970    9.9010 C.ar    1  UNL1        0.0032
     17 C          12.8129  -34.7419   10.3455 C.ar    1  UNL1        0.0379
     18 C          12.5289  -33.5527   10.9975 C.ar    1  UNL1        0.1470
     19 O          11.2678  -33.3029   11.4407 O.3     1  UNL1       -0.5043
     20 H          11.0770  -32.4983   11.8815 H       1  UNL1        0.2922
     21 N          15.9950  -25.6842   13.9406 N.am    1  UNL1       -0.2740
     22 C          14.8916  -25.1974   14.5423 C.2     1  UNL1        0.2825
     23 O          14.6487  -24.0101   14.4947 O.2     1  UNL1       -0.2684
     24 H          16.1921  -26.6479   13.9793 H       1  UNL1        0.1555
     25 C          18.0544  -24.2930   13.7101 C.ar    1  UNL1        0.0987
     26 C          18.7530  -23.4104   12.7932 C.ar    1  UNL1        0.0490
     27 C          18.1680  -23.2010   11.5835 C.ar    1  UNL1        0.0399
     28 S          16.6781  -24.1715   11.6756 S.2     1  UNL1       -0.0714
     29 C          16.8519  -24.8281   13.2676 C.ar    1  UNL1        0.0872
     30 C          20.0373  -22.7768   13.1537 C.ar    1  UNL1        0.1462
     31 C          20.2525  -21.4432   13.3130 C.ar    1  UNL1        0.0407
     32 C          21.6115  -21.2894   13.6563 C.ar    1  UNL1        0.0438
     33 C          22.1543  -22.5216   13.6806 C.ar    1  UNL1        0.1796
     34 O          21.2002  -23.4185   13.3764 O.2     1  UNL1       -0.4504
     35 C          18.5879  -24.5986   15.0369 C.2     1  UNL1        0.3430
     36 O          19.1192  -25.6728   15.2462 O.2     1  UNL1       -0.2448
     37 O          18.4960  -23.6872   16.0272 O.3     1  UNL1       -0.4454
     38 C          20.0256  -22.1077   17.0304 C.3     1  UNL1        0.0513
     39 C          19.6123  -23.5761   16.9124 C.3     1  UNL1        0.2089
@<TRIPOS>UNITY_ATOM_ATTR
7 1
charge 1
@<TRIPOS>BOND
     1    38    39    1
     2    39    37    1
     3    37    35    1
     4    35    36    2
     5    35    25    1
     6    25    29   ar
     7    25    26   ar
     8    26    27   ar
     9    26    30    1
    10    27    28   ar
    11    28    29   ar
    12    29    21    1
    13    21    22   am
    14    22    23    2
    15    22     1    1
    16     1     7    1
    17     2     3    1
    18     2     7    1
    19     3     4    1
    20     4     5    1
    21     4     9    1
    22     5     6    1
    23     6     7    1
    24     9    10    2
    25     9    11   am
    26    11    13    1
    27    13    18   ar
    28    13    14   ar
    29    14    15   ar
    30    15    16   ar
    31    16    17   ar
    32    17    18   ar
    33    18    19    1
    34    30    34   ar
    35    30    31   ar
    36    31    32   ar
    37    32    33   ar
    38    33    34   ar
    39    21    24    1
    40    11    12    1
    41    19    20    1
    42     7     8    1
#	Name:			ZINC15166886
#	Creating user name:	trannguyen
#	Creation time:		Wed Dec  7 14:36:20 2022


#	Modifying user name:	trannguyen
#	Modification time:	Wed Dec  7 14:36:20 2022

@<TRIPOS>MOLECULE
ZINC15166886
 40 44 0 0 0
SMALL
GASTEIGER

@<TRIPOS>ATOM
      1 C          19.0283  -24.8421   20.2147 C.3     1  UNL1        0.0004
      2 C          18.3673  -25.3300   18.9240 C.3     1  UNL1        0.0052
      3 C          17.6465  -24.1629   18.2430 C.3     1  UNL1        0.0050
      4 C          17.1966  -24.5775   16.8416 C.3     1  UNL1        0.0267
      5 C          16.3987  -25.8746   16.9440 C.ar    1  UNL1       -0.0155
      6 C          16.4955  -26.6587   18.0366 C.ar    1  UNL1        0.0048
      7 S          15.4150  -28.0283   17.7206 S.2     1  UNL1       -0.0726
      8 C          14.8324  -27.5446   16.1167 C.ar    1  UNL1        0.1143
      9 C          15.5015  -26.3270   15.8793 C.ar    1  UNL1        0.0515
     10 C          15.2117  -25.7035   14.6343 C.ar    1  UNL1        0.1316
     11 N          14.3643  -26.2887   13.8030 N.ar    1  UNL1       -0.2106
     12 C          13.7689  -27.4311   14.0943 C.ar    1  UNL1        0.1969
     13 N          13.9979  -28.0562   15.2332 N.ar    1  UNL1       -0.2187
     14 C          17.3371  -26.4199   19.2532 C.3     1  UNL1        0.0327
     15 N          15.8113  -24.5041   14.2946 N.pl3   1  UNL1       -0.3180
     16 H          15.6556  -23.7026   14.8448 H       1  UNL1        0.1482
     17 C          16.6780  -24.4263   13.1161 C.3     1  UNL1        0.0882
     18 C          17.0975  -22.9729   12.8866 C.3     1  UNL1        0.0212
     19 C          18.6034  -22.9124   12.6232 C.3     1  UNL1        0.0021
     20 C          19.1617  -21.5912   13.1559 C.3     1  UNL1        0.0064
     21 C          20.5845  -21.8105   13.6737 C.3     1  UNL1        0.0484
     22 C          21.2002  -20.4817   14.0292 C.ar    1  UNL1        0.0906
     23 C          21.4747  -20.0183   15.3368 C.ar    1  UNL1        0.1141
     24 C          22.0388  -18.7518   15.2097 C.ar    1  UNL1        0.1295
     25 N          22.0975  -18.4738   13.8906 N.ar    1  UNL1       -0.2630
     26 N          21.5766  -19.5634   13.1843 N.ar    1  UNL1       -0.1753
     27 N          22.4590  -17.9333   16.2406 N.pl3   1  UNL1       -0.3425
     28 H          22.4477  -17.6444   13.4924 H       1  UNL1        0.1903
     29 H          22.3711  -18.2330   17.1742 H       1  UNL1        0.1437
     30 H          22.8464  -17.0503   16.0414 H       1  UNL1        0.1437
     31 C          21.2211  -20.7190   16.5596 C.1     1  UNL1        0.1045
     32 N          21.0200  -21.2750   17.5296 N.1     1  UNL1       -0.1907
     33 C          12.8113  -28.0371   13.1009 C.3     1  UNL1        0.1722
     34 C          11.7998  -30.1667   13.6568 C.3     1  UNL1        0.1385
     35 C          10.6755  -30.8264   14.4595 C.3     1  UNL1        0.2029
     36 O           9.4164  -30.3089   14.0210 O.3     1  UNL1       -0.3412
     37 C           9.2980  -28.8903   14.1578 C.3     1  UNL1        0.2029
     38 C          10.4084  -28.2109   13.3520 C.3     1  UNL1        0.1385
     39 N          11.7148  -28.7020   13.8378 N.4     1  UNL1        0.2856
     40 H          11.8039  -28.4837   14.8302 H       1  UNL1        0.2074
@<TRIPOS>UNITY_ATOM_ATTR
39 1
charge 1
@<TRIPOS>BOND
     1     1     2    1
     2     2    14    1
     3     2     3    1
     4     3     4    1
     5     4     5    1
     6     5     9   ar
     7     5     6   ar
     8     6     7   ar
     9     6    14    1
    10     7     8   ar
    11     8    13   ar
    12     8     9   ar
    13     9    10   ar
    14    10    11   ar
    15    10    15    1
    16    11    12   ar
    17    12    13   ar
    18    12    33    1
    19    33    39    1
    20    34    35    1
    21    34    39    1
    22    35    36    1
    23    36    37    1
    24    37    38    1
    25    38    39    1
    26    15    17    1
    27    17    18    1
    28    18    19    1
    29    19    20    1
    30    20    21    1
    31    21    22    1
    32    22    26   ar
    33    22    23   ar
    34    23    24   ar
    35    23    31    1
    36    24    25   ar
    37    24    27    1
    38    25    26   ar
    39    31    32    3
    40    15    16    1
    41    25    28    1
    42    27    29    1
    43    27    30    1
    44    39    40    1
#	Name:			ZINC15166889
#	Creating user name:	trannguyen
#	Creation time:		Wed Dec  7 14:36:20 2022


#	Modifying user name:	trannguyen
#	Modification time:	Wed Dec  7 14:36:20 2022

@<TRIPOS>MOLECULE
ZINC15166889
 40 44 0 0 0
SMALL
GASTEIGER

@<TRIPOS>ATOM
      1 C          17.8825  -23.5826   10.9381 C.3     1  UNL1        0.0004
      2 C          17.6987  -24.3817   12.2298 C.3     1  UNL1        0.0052
      3 C          17.9887  -23.4831   13.4356 C.3     1  UNL1        0.0050
      4 C          18.0504  -24.3271   14.7087 C.3     1  UNL1        0.0267
      5 C          16.7796  -25.1671   14.8083 C.ar    1  UNL1       -0.0155
      6 C          16.0118  -25.3834   13.7162 C.ar    1  UNL1        0.0048
      7 S          14.6652  -26.3919   14.2833 S.2     1  UNL1       -0.0726
      8 C          15.1292  -26.5223   15.9797 C.ar    1  UNL1        0.1143
      9 C          16.3290  -25.7696   16.0520 C.ar    1  UNL1        0.0515
     10 C          16.9589  -25.6849   17.3268 C.ar    1  UNL1        0.1316
     11 N          16.3481  -26.3290   18.3196 N.ar    1  UNL1       -0.2106
     12 C          15.2303  -27.0120   18.1767 C.ar    1  UNL1        0.1969
     13 N          14.5920  -27.1302   17.0183 N.ar    1  UNL1       -0.2187
     14 C          16.2497  -24.8796   12.3259 C.3     1  UNL1        0.0327
     15 N          18.1324  -24.9787   17.5210 N.pl3   1  UNL1       -0.3180
     16 H          18.8996  -25.1244   16.9216 H       1  UNL1        0.1482
     17 C          18.2335  -24.0141   18.6189 C.3     1  UNL1        0.0882
     18 C          19.4584  -23.1228   18.4035 C.3     1  UNL1        0.0212
     19 C          20.4189  -23.8035   17.4264 C.3     1  UNL1        0.0021
     20 C          20.9406  -22.7731   16.4228 C.3     1  UNL1        0.0064
     21 C          20.0824  -21.5086   16.4975 C.3     1  UNL1        0.0484
     22 C          20.9024  -20.3191   16.0687 C.ar    1  UNL1        0.0906
     23 C          21.0933  -19.8799   14.7381 C.ar    1  UNL1        0.1141
     24 C          21.9117  -18.7550   14.7943 C.ar    1  UNL1        0.1295
     25 N          22.1947  -18.5344   16.0951 N.ar    1  UNL1       -0.2630
     26 N          21.5534  -19.5141   16.8607 N.ar    1  UNL1       -0.1753
     27 N          22.3517  -18.0055   13.7200 N.pl3   1  UNL1       -0.3425
     28 H          22.7576  -17.8069   16.4460 H       1  UNL1        0.1903
     29 H          22.0857  -18.2532   12.8050 H       1  UNL1        0.1437
     30 H          22.9313  -17.2238   13.8696 H       1  UNL1        0.1437
     31 C          20.5480  -20.4784   13.5569 C.1     1  UNL1        0.1045
     32 N          20.1154  -20.9531   12.6200 N.1     1  UNL1       -0.1907
     33 C          14.6472  -27.6926   19.3883 C.3     1  UNL1        0.1722
     34 C          12.5252  -26.9282   20.2717 C.3     1  UNL1        0.1385
     35 C          11.0092  -26.9899   20.0668 C.3     1  UNL1        0.2029
     36 O          10.5796  -28.3525   20.1317 O.3     1  UNL1       -0.3412
     37 C          11.2023  -29.1993   19.1621 C.3     1  UNL1        0.2029
     38 C          12.7203  -29.1599   19.3577 C.3     1  UNL1        0.1385
     39 N          13.1774  -27.7596   19.2379 N.4     1  UNL1        0.2856
     40 H          12.9230  -27.4046   18.3162 H       1  UNL1        0.2074
@<TRIPOS>UNITY_ATOM_ATTR
39 1
charge 1
@<TRIPOS>BOND
     1     1     2    1
     2     2    14    1
     3     2     3    1
     4     3     4    1
     5     4     5    1
     6     5     9   ar
     7     5     6   ar
     8     6     7   ar
     9     6    14    1
    10     7     8   ar
    11     8    13   ar
    12     8     9   ar
    13     9    10   ar
    14    10    11   ar
    15    10    15    1
    16    11    12   ar
    17    12    13   ar
    18    12    33    1
    19    33    39    1
    20    34    35    1
    21    34    39    1
    22    35    36    1
    23    36    37    1
    24    37    38    1
    25    38    39    1
    26    15    17    1
    27    17    18    1
    28    18    19    1
    29    19    20    1
    30    20    21    1
    31    21    22    1
    32    22    26   ar
    33    22    23   ar
    34    23    24   ar
    35    23    31    1
    36    24    25   ar
    37    24    27    1
    38    25    26   ar
    39    31    32    3
    40    15    16    1
    41    25    28    1
    42    27    29    1
    43    27    30    1
    44    39    40    1
#	Name:			ZINC15228296
#	Creating user name:	trannguyen
#	Creation time:		Wed Dec  7 14:36:20 2022


#	Modifying user name:	trannguyen
#	Modification time:	Wed Dec  7 14:36:20 2022

@<TRIPOS>MOLECULE
ZINC15228296
 43 46 0 0 0
SMALL
GASTEIGER

@<TRIPOS>ATOM
      1 C          14.2093  -26.3267   15.2817 C.2     1  UNL1        0.2595
      2 O          14.9822  -26.2506   16.2137 O.2     1  UNL1       -0.2716
      3 N          14.4252  -25.6015   14.1664 N.am    1  UNL1       -0.2045
      4 H          13.7979  -25.6630   13.4100 H       1  UNL1        0.1773
      5 N          15.5423  -24.7600   14.0832 N.2     1  UNL1       -0.1776
      6 C          16.5782  -25.1233   13.3910 C.2     1  UNL1        0.1176
      7 C          17.7537  -24.2378   13.3034 C.ar    1  UNL1        0.0209
      8 C          17.5887  -22.8806   13.0144 C.ar    1  UNL1        0.0047
      9 C          18.6907  -22.0577   12.9288 C.ar    1  UNL1        0.0370
     10 C          19.9631  -22.5732   13.1398 C.ar    1  UNL1        0.1391
     11 C          20.1319  -23.9216   13.4274 C.ar    1  UNL1        0.0370
     12 C          19.0361  -24.7531   13.5098 C.ar    1  UNL1        0.0047
     13 O          21.0462  -21.7572   13.0595 O.3     1  UNL1       -0.4706
     14 C          21.8846  -21.6765   14.2139 C.3     1  UNL1        0.2327
     15 C          21.1578  -20.9447   15.3126 C.ar    1  UNL1        0.0308
     16 C          20.6552  -21.6412   16.3924 C.ar    1  UNL1       -0.0000
     17 C          19.9914  -20.9704   17.4040 C.ar    1  UNL1       -0.0002
     18 C          19.8183  -19.5992   17.3361 C.ar    1  UNL1        0.0007
     19 C          20.3109  -18.8912   16.2598 C.ar    1  UNL1        0.0101
     20 C          20.9862  -19.5612   15.2375 C.ar    1  UNL1        0.0679
     21 C          21.5000  -18.8326   14.1168 C.1     1  UNL1        0.1002
     22 N          21.9076  -18.2548   13.2277 N.1     1  UNL1       -0.1908
     23 C          13.0078  -27.2318   15.3711 C.3     1  UNL1        0.1610
     24 C          11.7900  -27.2682   17.4813 C.2     1  UNL1        0.4023
     25 O          12.3783  -28.2916   17.7694 O.2     1  UNL1       -0.2264
     26 N          12.0336  -26.6596   16.3037 N.am    1  UNL1       -0.2635
     27 H          11.5569  -25.8304   16.0702 H       1  UNL1        0.1532
     28 O          10.8948  -26.7424   18.3384 O.3     1  UNL1       -0.4297
     29 C          11.1364  -26.9519   19.7547 C.3     1  UNL1        0.2367
     30 C           8.0670  -29.4461   21.3689 C.ar    1  UNL1       -0.0000
     31 C           8.7995  -28.6233   22.2039 C.ar    1  UNL1       -0.0002
     32 C           9.7929  -27.8163   21.6816 C.ar    1  UNL1       -0.0007
     33 C          10.0536  -27.8319   20.3243 C.ar    1  UNL1        0.0213
     34 C           9.3173  -28.6505   19.4883 C.ar    1  UNL1       -0.0007
     35 C           8.3273  -29.4613   20.0114 C.ar    1  UNL1       -0.0002
     36 C          12.3691  -27.3698   13.9876 C.3     1  UNL1        0.1021
     37 C          11.1659  -28.2728   14.0775 C.ar    1  UNL1        0.1651
     38 C          11.1751  -29.5699   14.4393 C.ar    1  UNL1        0.2203
     39 N           9.8779  -30.0040   14.3900 N.ar    1  UNL1       -0.2270
     40 C           9.1219  -28.9588   13.9907 C.ar    1  UNL1        0.3715
     41 N           9.8988  -27.9268   13.8057 N.ar    1  UNL1       -0.2329
     42 H           9.5563  -30.9092   14.6054 H       1  UNL1        0.3117
     43 H           9.6019  -27.0350   13.5129 H       1  UNL1        0.3113
@<TRIPOS>UNITY_ATOM_ATTR
41 1
charge 1
@<TRIPOS>BOND
     1    30    35   ar
     2    30    31   ar
     3    31    32   ar
     4    32    33   ar
     5    33    34   ar
     6    33    29    1
     7    34    35   ar
     8    29    28    1
     9    28    24    1
    10    24    25    2
    11    24    26   am
    12    26    23    1
    13    23    36    1
    14    23     1    1
    15    36    37    1
    16    37    41   ar
    17    37    38   ar
    18    38    39   ar
    19    39    40   ar
    20    40    41   ar
    21     1     2    2
    22     1     3   am
    23     3     5    1
    24     5     6    2
    25     6     7    1
    26     7    12   ar
    27     7     8   ar
    28     8     9   ar
    29     9    10   ar
    30    10    11   ar
    31    10    13    1
    32    11    12   ar
    33    13    14    1
    34    14    15    1
    35    15    20   ar
    36    15    16   ar
    37    16    17   ar
    38    17    18   ar
    39    18    19   ar
    40    19    20   ar
    41    20    21    1
    42    21    22    3
    43    26    27    1
    44    39    42    1
    45    41    43    1
    46     3     4    1
#	Name:			ZINC15348831
#	Creating user name:	trannguyen
#	Creation time:		Wed Dec  7 14:36:20 2022


#	Modifying user name:	trannguyen
#	Modification time:	Wed Dec  7 14:36:20 2022

@<TRIPOS>MOLECULE
ZINC15348831
 32 34 0 0 0
SMALL
GASTEIGER

@<TRIPOS>ATOM
      1 C          16.0753  -25.9968   14.9573 C.2     1  UNL1        0.0144
      2 C          14.7775  -25.6438   15.0695 C.2     1  UNL1        0.0915
      3 CL         14.3428  -23.9693   15.2141 Cl      1  UNL1       -0.0791
      4 C          13.7360  -26.6731   15.0691 C.ar    1  UNL1        0.1534
      5 N          12.7627  -26.6220   16.0357 N.ar    1  UNL1       -0.3057
      6 C          11.7828  -27.5544   16.0700 C.ar    1  UNL1        0.2602
      7 O          10.9121  -27.5236   16.9205 O.2     1  UNL1       -0.2671
      8 C          11.8109  -28.6085   15.0480 C.ar    1  UNL1        0.0768
      9 C          10.8389  -29.6085   15.0015 C.ar    1  UNL1        0.0463
     10 C          10.9021  -30.5752   14.0193 C.ar    1  UNL1        0.1726
     11 C          11.9296  -30.5548   13.0696 C.ar    1  UNL1        0.1739
     12 C          12.8959  -29.5693   13.0989 C.ar    1  UNL1        0.0593
     13 C          12.8486  -28.5813   14.0863 C.ar    1  UNL1        0.0907
     14 N          13.7746  -27.6044   14.1447 N.ar    1  UNL1       -0.2273
     15 H          12.7778  -25.9028   16.7079 H       1  UNL1        0.1704
     16 O          11.9766  -31.5140   12.1092 O.3     1  UNL1       -0.4683
     17 C          13.1572  -32.3171   12.0515 C.3     1  UNL1        0.2526
     18 O           9.9592  -31.5543   13.9735 O.3     1  UNL1       -0.4684
     19 C          10.2505  -32.7686   14.6685 C.3     1  UNL1        0.2526
     20 C          19.0528  -23.0104   14.4946 C.ar    1  UNL1        0.0478
     21 C          18.1423  -23.2473   13.4690 C.ar    1  UNL1        0.0145
     22 C          17.1747  -24.2152   13.6149 C.ar    1  UNL1        0.0013
     23 C          17.1076  -24.9620   14.7967 C.ar    1  UNL1        0.0010
     24 C          18.0221  -24.7173   15.8276 C.ar    1  UNL1        0.0013
     25 C          18.9893  -23.7504   15.6715 C.ar    1  UNL1        0.0145
     26 N          20.0302  -22.0295   14.3428 N.pl3   1  UNL1       -0.3075
     27 C          21.0116  -21.8026   15.4066 C.3     1  UNL1        0.0908
     28 C          20.0185  -20.8102   17.4733 C.3     1  UNL1        0.0018
     29 C          20.6844  -20.4960   16.1322 C.3     1  UNL1        0.0214
     30 C          20.0767  -21.2248   13.1195 C.3     1  UNL1        0.0908
     31 C          21.5250  -20.8307   12.8231 C.3     1  UNL1        0.0214
     32 C          21.6269  -19.3081   12.7127 C.3     1  UNL1        0.0018
@<TRIPOS>BOND
     1    28    29    1
     2    29    27    1
     3    27    26    1
     4    26    30    1
     5    26    20    1
     6    30    31    1
     7    31    32    1
     8    20    25   ar
     9    20    21   ar
    10    21    22   ar
    11    22    23   ar
    12    23    24   ar
    13    23     1    1
    14    24    25   ar
    15     1     2    2
    16     2     4    1
    17     2     3    1
    18     4    14   ar
    19     4     5   ar
    20     5     6   ar
    21     6     7    2
    22     6     8   ar
    23     8    13   ar
    24     8     9   ar
    25     9    10   ar
    26    10    11   ar
    27    10    18    1
    28    11    12   ar
    29    11    16    1
    30    12    13   ar
    31    13    14   ar
    32    16    17    1
    33    18    19    1
    34     5    15    1
#	Name:			ZINC15441397
#	Creating user name:	trannguyen
#	Creation time:		Wed Dec  7 14:36:20 2022


#	Modifying user name:	trannguyen
#	Modification time:	Wed Dec  7 14:36:20 2022

@<TRIPOS>MOLECULE
ZINC15441397
 38 41 0 0 0
SMALL
GASTEIGER

@<TRIPOS>ATOM
      1 C          19.5933  -22.8681   14.0346 C.3     1  UNL1        0.0860
      2 C          22.2741  -17.9892   15.5846 C.3     1  UNL1        0.0310
      3 C          21.5775  -19.2629   15.1802 C.ar    1  UNL1       -0.0219
      4 C          21.3432  -19.5283   13.8440 C.ar    1  UNL1       -0.0046
      5 C          20.7046  -20.6968   13.4730 C.ar    1  UNL1       -0.0037
      6 C          20.2950  -21.5972   14.4386 C.ar    1  UNL1       -0.0116
      7 C          20.5331  -21.3338   15.7746 C.ar    1  UNL1       -0.0037
      8 C          21.1722  -20.1655   16.1455 C.ar    1  UNL1       -0.0046
      9 C          19.0830  -22.7346   12.5984 C.3     1  UNL1        0.1006
     10 C          17.7333  -23.3948   12.4814 C.2     1  UNL1        0.2237
     11 O          17.1978  -23.4920   11.3976 O.2     1  UNL1       -0.2751
     12 N          17.1215  -23.8772   13.5811 N.am    1  UNL1       -0.3041
     13 H          17.5563  -23.7982   14.4609 H       1  UNL1        0.1494
     14 C          15.8095  -24.5190   13.4674 C.3     1  UNL1        0.0955
     15 C          15.7350  -25.7021   14.4346 C.3     1  UNL1        0.0821
     16 C          14.3782  -25.6980   15.1417 C.3     1  UNL1        0.1073
     17 N          13.3736  -26.3317   14.2771 N.4     1  UNL1        0.2798
     18 C          12.0813  -26.4477   14.9686 C.3     1  UNL1        0.1380
     19 C          11.0508  -27.0567   14.0140 C.3     1  UNL1        0.2029
     20 O          11.5301  -28.3205   13.5464 O.3     1  UNL1       -0.3412
     21 C          12.7866  -28.2443   12.8675 C.3     1  UNL1        0.2029
     22 C          13.8347  -27.6473   13.8103 C.3     1  UNL1        0.1380
     23 H          13.2431  -25.7342   13.4607 H       1  UNL1        0.2069
     24 S          20.7513  -24.2554   14.1370 S.3     1  UNL1       -0.0721
     25 C          20.1525  -25.0470   15.5927 C.ar    1  UNL1        0.1855
     26 N          18.8883  -24.9564   16.1029 N.ar    1  UNL1       -0.2009
     27 C          18.8890  -25.7359   17.2366 C.ar    1  UNL1        0.1833
     28 N          20.0979  -26.2322   17.3620 N.ar    1  UNL1       -0.1515
     29 N          20.8385  -25.8345   16.3900 N.ar    1  UNL1       -0.2532
     30 H          21.7823  -26.0834   16.2616 H       1  UNL1        0.1911
     31 C          17.7447  -25.9703   18.1424 C.ar    1  UNL1        0.0377
     32 C          17.6096  -25.2155   19.3091 C.ar    1  UNL1        0.0062
     33 C          16.5378  -25.4331   20.1482 C.ar    1  UNL1        0.0370
     34 C          15.5995  -26.4094   19.8403 C.ar    1  UNL1        0.1387
     35 C          15.7333  -27.1661   18.6836 C.ar    1  UNL1        0.0370
     36 C          16.7991  -26.9507   17.8364 C.ar    1  UNL1        0.0062
     37 O          14.5478  -26.6250   20.6731 O.3     1  UNL1       -0.4714
     38 C          14.2666  -27.9809   21.0256 C.3     1  UNL1        0.2525
@<TRIPOS>UNITY_ATOM_ATTR
17 1
charge 1
@<TRIPOS>BOND
     1     2     3    1
     2     3     8   ar
     3     3     4   ar
     4     4     5   ar
     5     5     6   ar
     6     6     7   ar
     7     6     1    1
     8     7     8   ar
     9     1     9    1
    10     1    24    1
    11     9    10    1
    12    10    11    2
    13    10    12   am
    14    12    14    1
    15    14    15    1
    16    15    16    1
    17    16    17    1
    18    17    22    1
    19    17    18    1
    20    18    19    1
    21    19    20    1
    22    20    21    1
    23    21    22    1
    24    24    25    1
    25    25    26   ar
    26    25    29   ar
    27    26    27   ar
    28    27    31    1
    29    27    28   ar
    30    28    29   ar
    31    31    36   ar
    32    31    32   ar
    33    32    33   ar
    34    33    34   ar
    35    34    35   ar
    36    34    37    1
    37    35    36   ar
    38    37    38    1
    39    12    13    1
    40    17    23    1
    41    29    30    1
#	Name:			ZINC15495744
#	Creating user name:	trannguyen
#	Creation time:		Wed Dec  7 14:36:19 2022


#	Modifying user name:	trannguyen
#	Modification time:	Wed Dec  7 14:36:19 2022

@<TRIPOS>MOLECULE
ZINC15495744
 37 39 0 0 0
SMALL
GASTEIGER

@<TRIPOS>ATOM
      1 C          20.1532  -23.6184   13.0675 C.ar    1  UNL1        0.1558
      2 N          20.5643  -24.8332   13.3872 N.ar    1  UNL1       -0.1981
      3 C          21.6231  -24.9927   14.1781 C.ar    1  UNL1        0.2172
      4 N          22.2666  -23.9287   14.6462 N.ar    1  UNL1       -0.1810
      5 C          21.8503  -22.7094   14.3226 C.ar    1  UNL1        0.2242
      6 N          20.7872  -22.5579   13.5355 N.ar    1  UNL1       -0.1976
      7 N          22.0518  -26.2614   14.5110 N.pl3   1  UNL1       -0.3274
      8 H          21.5744  -27.0493   14.1638 H       1  UNL1        0.1452
      9 H          22.8351  -26.3786   15.0958 H       1  UNL1        0.1452
     10 N          22.5159  -21.6004   14.8066 N.pl3   1  UNL1       -0.2801
     11 H          23.4984  -21.6042   14.8685 H       1  UNL1        0.1552
     12 C          21.7930  -20.4702   15.2093 C.ar    1  UNL1        0.0849
     13 C          21.7316  -19.3544   14.3872 C.ar    1  UNL1        0.0178
     14 C          21.0181  -18.2404   14.7870 C.ar    1  UNL1        0.0015
     15 C          20.3646  -18.2344   16.0055 C.ar    1  UNL1        0.0032
     16 C          20.4167  -19.3448   16.8277 C.ar    1  UNL1        0.0382
     17 C          21.1343  -20.4634   16.4368 C.ar    1  UNL1        0.1520
     18 O          21.1911  -21.5541   17.2470 O.3     1  UNL1       -0.4702
     19 C          19.9471  -22.1461   17.6263 C.3     1  UNL1        0.2525
     20 C          18.9543  -23.4425   12.1715 C.3     1  UNL1        0.1236
     21 S          18.2171  -25.0628   11.8226 S.3     1  UNL1       -0.1237
     22 C          16.0848  -23.5692   12.6619 C.3     1  UNL1        0.0214
     23 C          16.6121  -25.0055   12.6662 C.3     1  UNL1        0.1245
     24 C          16.7751  -25.4766   14.0883 C.2     1  UNL1        0.2358
     25 O          17.6245  -26.2983   14.3615 O.2     1  UNL1       -0.2739
     26 N          15.9770  -24.9849   15.0567 N.am    1  UNL1       -0.2832
     27 H          15.2434  -24.3704   14.8253 H       1  UNL1        0.1549
     28 C          16.1915  -25.3484   16.3932 C.ar    1  UNL1        0.0504
     29 C          17.0292  -24.5840   17.1946 C.ar    1  UNL1        0.0152
     30 C          17.2363  -24.9385   18.5125 C.ar    1  UNL1        0.0076
     31 C          16.6152  -26.0668   19.0340 C.ar    1  UNL1        0.0303
     32 C          15.7816  -26.8346   18.2301 C.ar    1  UNL1        0.0076
     33 C          15.5706  -26.4762   16.9139 C.ar    1  UNL1        0.0152
     34 S          16.8845  -26.5236   20.7144 S.3     1  UNL1       -0.0442
     35 C          18.6352  -26.9953   20.7659 C.3     1  UNL1        0.3707
     36 F          18.9805  -27.6373   19.5718 F       1  UNL1       -0.1852
     37 F          19.4225  -25.8496   20.9239 F       1  UNL1       -0.1852
@<TRIPOS>BOND
     1    22    23    1
     2    23    24    1
     3    23    21    1
     4    24    25    2
     5    24    26   am
     6    26    28    1
     7    28    33   ar
     8    28    29   ar
     9    29    30   ar
    10    30    31   ar
    11    31    32   ar
    12    31    34    1
    13    32    33   ar
    14    34    35    1
    15    35    36    1
    16    35    37    1
    17    21    20    1
    18    20     1    1
    19     1     6   ar
    20     1     2   ar
    21     2     3   ar
    22     3     4   ar
    23     3     7    1
    24     4     5   ar
    25     5     6   ar
    26     5    10    1
    27    10    12    1
    28    12    17   ar
    29    12    13   ar
    30    13    14   ar
    31    14    15   ar
    32    15    16   ar
    33    16    17   ar
    34    17    18    1
    35    18    19    1
    36    26    27    1
    37    10    11    1
    38     7     8    1
    39     7     9    1
#	Name:			ZINC15535327
#	Creating user name:	trannguyen
#	Creation time:		Wed Dec  7 14:36:19 2022


#	Modifying user name:	trannguyen
#	Modification time:	Wed Dec  7 14:36:19 2022

@<TRIPOS>MOLECULE
ZINC15535327
 31 32 0 0 0
SMALL
GASTEIGER

@<TRIPOS>ATOM
      1 N          21.1309  -25.4198   16.7772 N.am    1  UNL1       -0.2931
      2 C          20.5392  -25.7661   15.6168 C.2     1  UNL1        0.2463
      3 O          19.3805  -25.4570   15.4087 O.2     1  UNL1       -0.2701
      4 H          22.0681  -25.6697   16.9456 H       1  UNL1        0.1502
      5 C          21.2895  -26.5132   14.6078 C.2     1  UNL1        0.0577
      6 C          21.9550  -25.8537   13.6362 C.2     1  UNL1        0.0048
      7 C          22.7092  -26.6046   12.6221 C.ar    1  UNL1        0.0034
      8 C          24.0506  -26.2938   12.3723 C.ar    1  UNL1        0.0033
      9 C          24.7549  -26.9991   11.4215 C.ar    1  UNL1        0.0402
     10 C          24.1375  -28.0187   10.7093 C.ar    1  UNL1        0.1779
     11 C          22.8014  -28.3347   10.9528 C.ar    1  UNL1        0.1726
     12 C          22.0892  -27.6363   11.9079 C.ar    1  UNL1        0.0401
     13 O          22.2008  -29.3344   10.2531 O.3     1  UNL1       -0.4684
     14 C          21.9716  -30.5635   10.9450 C.3     1  UNL1        0.2526
     15 O          24.8371  -28.7106    9.7729 O.3     1  UNL1       -0.4205
     16 C          25.1287  -28.0330    8.5491 C.3     1  UNL1        0.5087
     17 F          24.1452  -27.0687    8.3041 F       1  UNL1       -0.1550
     18 F          26.3779  -27.4107    8.6468 F       1  UNL1       -0.1550
     19 C          20.3794  -24.6715   17.7879 C.3     1  UNL1        0.1762
     20 N          19.8521  -22.5513   16.6278 N.am    1  UNL1       -0.2828
     21 C          20.5747  -23.1936   17.5670 C.2     1  UNL1        0.2462
     22 O          21.3820  -22.5821   18.2342 O.2     1  UNL1       -0.2729
     23 H          19.1405  -23.0283   16.1426 H       1  UNL1        0.1549
     24 C          21.5292  -19.1342   13.5163 C.3     1  UNL1        0.0307
     25 C          20.9262  -19.5221   14.8418 C.ar    1  UNL1       -0.0246
     26 C          20.6305  -18.5479   15.7778 C.ar    1  UNL1       -0.0045
     27 C          20.0777  -18.8997   16.9953 C.ar    1  UNL1        0.0009
     28 C          19.8181  -20.2262   17.2800 C.ar    1  UNL1        0.0143
     29 C          20.1134  -21.2067   16.3423 C.ar    1  UNL1        0.0460
     30 C          20.6692  -20.8500   15.1203 C.ar    1  UNL1       -0.0123
     31 C          20.9908  -21.9108   14.0995 C.3     1  UNL1        0.0320
@<TRIPOS>BOND
     1    24    25    1
     2    25    30   ar
     3    25    26   ar
     4    26    27   ar
     5    27    28   ar
     6    28    29   ar
     7    29    30   ar
     8    29    20    1
     9    30    31    1
    10    20    21   am
    11    21    22    2
    12    21    19    1
    13    19     1    1
    14     1     2   am
    15     2     3    2
    16     2     5    1
    17     5     6    2
    18     6     7    1
    19     7    12   ar
    20     7     8   ar
    21     8     9   ar
    22     9    10   ar
    23    10    11   ar
    24    10    15    1
    25    11    12   ar
    26    11    13    1
    27    13    14    1
    28    15    16    1
    29    16    17    1
    30    16    18    1
    31    20    23    1
    32     1     4    1
#	Name:			ZINC15548292
#	Creating user name:	trannguyen
#	Creation time:		Wed Dec  7 14:36:20 2022


#	Modifying user name:	trannguyen
#	Modification time:	Wed Dec  7 14:36:20 2022

@<TRIPOS>MOLECULE
ZINC15548292
 31 33 0 0 0
SMALL
GASTEIGER

@<TRIPOS>ATOM
      1 C          19.8078  -25.8588   13.5915 C.3     1  UNL1        0.1771
      2 C          18.7820  -23.6569   13.6069 C.3     1  UNL1        0.0789
      3 C          17.8024  -22.9695   12.6234 C.3     1  UNL1        0.0659
      4 C          17.3566  -24.1638   11.7391 C.3     1  UNL1        0.0672
      5 C          18.6368  -25.0198   11.6398 C.3     1  UNL1        0.1061
      6 N          19.4916  -24.6539   12.7808 N.4     1  UNL1        0.2808
      7 H          20.3676  -24.2576   12.4404 H       1  UNL1        0.2073
      8 C          21.5575  -20.8107   15.1745 C.ar    1  UNL1        0.1385
      9 C          20.7790  -21.5694   16.0364 C.ar    1  UNL1        0.0368
     10 C          19.8827  -22.4890   15.5272 C.ar    1  UNL1        0.0043
     11 C          19.7609  -22.6534   14.1597 C.ar    1  UNL1        0.0268
     12 C          20.5397  -21.9024   13.2987 C.ar    1  UNL1        0.0043
     13 C          21.4338  -20.9778   13.8028 C.ar    1  UNL1        0.0368
     14 O          22.4403  -19.9057   15.6730 O.3     1  UNL1       -0.4755
     15 C          20.8520  -18.0918   15.8396 C.3     1  UNL1        0.0512
     16 C          22.2259  -18.5346   15.3321 C.3     1  UNL1        0.2055
     17 C          21.3024  -25.9788   13.7415 C.2     1  UNL1        0.2429
     18 O          21.8748  -25.3709   14.6230 O.2     1  UNL1       -0.2836
     19 C          22.0391  -26.8002   12.8547 C.ar    1  UNL1        0.0936
     20 C          23.3221  -26.5647   12.4099 C.ar    1  UNL1        0.0041
     21 C          23.6582  -27.6313   11.5492 C.ar    1  UNL1        0.0846
     22 C          22.5648  -28.4788   11.5018 C.ar    1  UNL1        0.0400
     23 N          21.5984  -27.9772   12.2848 N.ar    1  UNL1       -0.3541
     24 C          22.4732  -29.7506   10.6988 C.3     1  UNL1        0.0500
     25 C          24.1979  -25.3932   12.7731 C.3     1  UNL1        0.0329
     26 H          20.7139  -28.3845   12.4300 H       1  UNL1        0.1657
     27 C          24.9339  -27.8095   10.8349 C.2     1  UNL1        0.3420
     28 O          25.7594  -28.5973   11.2529 O.2     1  UNL1       -0.2449
     29 O          25.1856  -27.0989    9.7179 O.3     1  UNL1       -0.4454
     30 C          24.5839  -27.5739    8.4848 C.3     1  UNL1        0.2089
     31 C          24.8541  -26.5673    7.3646 C.3     1  UNL1        0.0513
@<TRIPOS>UNITY_ATOM_ATTR
6 1
charge 1
@<TRIPOS>BOND
     1    15    16    1
     2    16    14    1
     3    14     8    1
     4     8    13   ar
     5     8     9   ar
     6     9    10   ar
     7    10    11   ar
     8    11    12   ar
     9    11     2    1
    10    12    13   ar
    11     2     3    1
    12     2     6    1
    13     3     4    1
    14     4     5    1
    15     5     6    1
    16     1    17    1
    17     1     6    1
    18    17    18    2
    19    17    19    1
    20    19    23   ar
    21    19    20   ar
    22    20    21   ar
    23    20    25    1
    24    21    22   ar
    25    21    27    1
    26    22    23   ar
    27    22    24    1
    28    27    28    2
    29    27    29    1
    30    29    30    1
    31    30    31    1
    32    23    26    1
    33     6     7    1
#	Name:			ZINC15776990
#	Creating user name:	trannguyen
#	Creation time:		Wed Dec  7 14:36:20 2022


#	Modifying user name:	trannguyen
#	Modification time:	Wed Dec  7 14:36:20 2022

@<TRIPOS>MOLECULE
ZINC15776990
 34 35 0 0 0
SMALL
GASTEIGER

@<TRIPOS>ATOM
      1 N          20.9186  -23.5111   13.0828 N.am    1  UNL1       -0.2997
      2 H          20.6329  -22.9856   12.3009 H       1  UNL1        0.1498
      3 C          22.0079  -23.1386   13.7837 C.2     1  UNL1        0.1362
      4 S          23.4845  -22.8336   12.9729 S.2     1  UNL1       -0.0185
      5 N          21.9345  -23.0061   15.1230 N.am    1  UNL1       -0.2935
      6 H          22.2839  -23.7167   15.7079 H       1  UNL1        0.1539
      7 C          20.2797  -21.9694   16.5540 C.ar    1  UNL1        0.1521
      8 C          19.7169  -20.8298   17.1050 C.ar    1  UNL1        0.0399
      9 C          20.2245  -19.5840   16.7858 C.ar    1  UNL1        0.0273
     10 C          21.3015  -19.4718   15.9256 C.ar    1  UNL1        0.1443
     11 C          21.8685  -20.6039   15.3717 C.ar    1  UNL1        0.0418
     12 C          21.3609  -21.8569   15.6829 C.ar    1  UNL1        0.0857
     13 N          21.8439  -18.1357   15.5922 N.pl3   1  UNL1        0.0577
     14 O          22.1773  -17.8817   14.4486 O.2     1  UNL1       -0.1261
     15 O          21.9569  -17.2900   16.4615 O.2     1  UNL1       -0.1261
     16 C          19.9822  -23.6628   18.1970 C.3     1  UNL1        0.2525
     17 O          19.7776  -23.1950   16.8623 O.3     1  UNL1       -0.4702
     18 C          20.1598  -24.6981   13.4845 C.3     1  UNL1        0.2066
     19 C          18.6621  -24.4139   13.3546 C.3     1  UNL1        0.2309
     20 CL         18.0508  -25.1067   11.8063 Cl      1  UNL1       -0.0793
     21 CL         17.7850  -25.1678   14.7379 Cl      1  UNL1       -0.0793
     22 CL         18.3851  -22.6324   13.3667 Cl      1  UNL1       -0.0793
     23 N          20.5210  -25.8271   12.6168 N.4     1  UNL1       -0.1203
     24 H          20.4965  -25.5213   11.6440 H       1  UNL1        0.1700
     25 O          21.7165  -26.2669   12.8955 O.3     1  UNL1       -0.3661
     26 C          22.1900  -27.2676   12.1365 C.2     1  UNL1        0.3391
     27 O          21.4240  -28.0097   11.5687 O.2     1  UNL1       -0.2480
     28 C          23.6770  -27.4655   11.9927 C.3     1  UNL1        0.1376
     29 C          24.0322  -27.5589   10.5311 C.ar    1  UNL1       -0.0110
     30 C          24.5607  -26.4619    9.8768 C.ar    1  UNL1       -0.0037
     31 C          24.8909  -26.5490    8.5373 C.ar    1  UNL1       -0.0003
     32 C          24.6834  -27.7301    7.8496 C.ar    1  UNL1       -0.0000
     33 C          24.1496  -28.8253    8.5025 C.ar    1  UNL1       -0.0003
     34 C          23.8242  -28.7398    9.8433 C.ar    1  UNL1       -0.0037
@<TRIPOS>BOND
     1    16    17    1
     2    17     7    1
     3     7    12   ar
     4     7     8   ar
     5     8     9   ar
     6     9    10   ar
     7    10    11   ar
     8    10    13    1
     9    11    12   ar
    10    12     5    1
    11     5     3    1
    12     3     4    2
    13     3     1    1
    14     1    18    1
    15    18    19    1
    16    18    23    1
    17    19    20    1
    18    19    21    1
    19    19    22    1
    20    23    25    1
    21    25    26    1
    22    26    27    2
    23    26    28    1
    24    28    29    1
    25    29    34   ar
    26    29    30   ar
    27    30    31   ar
    28    31    32   ar
    29    32    33   ar
    30    33    34   ar
    31    13    14    2
    32    13    15    2
    33     5     6    1
    34     1     2    1
    35    23    24    1
#	Name:			ZINC15800320
#	Creating user name:	trannguyen
#	Creation time:		Wed Dec  7 14:36:19 2022


#	Modifying user name:	trannguyen
#	Modification time:	Wed Dec  7 14:36:19 2022

@<TRIPOS>MOLECULE
ZINC15800320
 31 33 0 0 0
SMALL
GASTEIGER

@<TRIPOS>ATOM
      1 C          19.8481  -25.2426   15.3661 C.ar    1  UNL1        0.1387
      2 C          21.0895  -24.9936   14.7926 C.ar    1  UNL1        0.0369
      3 C          21.2977  -23.8413   14.0686 C.ar    1  UNL1        0.0031
      4 C          20.2559  -22.9192   13.9105 C.ar    1  UNL1        0.0008
      5 C          19.0089  -23.1724   14.4949 C.ar    1  UNL1        0.0031
      6 C          18.8103  -24.3306   15.2125 C.ar    1  UNL1        0.0369
      7 C          20.4721  -21.6878   13.1397 C.2     1  UNL1        0.0113
      8 C          21.0433  -20.6087   13.7311 C.2     1  UNL1        0.0900
      9 C          21.4917  -19.3390   13.1280 C.2     1  UNL1        0.2603
     10 O          21.3833  -19.1287   11.9341 O.2     1  UNL1       -0.2691
     11 N          22.0172  -18.4400   13.9429 N.am    1  UNL1       -0.2220
     12 C          22.1315  -18.6988   15.2939 C.2     1  UNL1        0.3104
     13 N          22.6207  -17.9311   16.2284 N.2     1  UNL1       -0.2353
     14 S          21.4475  -20.3404   15.4510 S.3     1  UNL1        0.0019
     15 H          22.3297  -17.5786   13.5829 H       1  UNL1        0.1612
     16 H          22.9686  -17.0388   16.0004 H       1  UNL1        0.4453
     17 H          22.6419  -18.2442   17.1616 H       1  UNL1        0.4453
     18 O          19.6482  -26.3808   16.0789 O.3     1  UNL1       -0.4727
     19 C          19.4920  -27.5920   15.3369 C.3     1  UNL1        0.2373
     20 C          18.7998  -28.6399   16.2108 C.3     1  UNL1        0.1895
     21 O          18.6029  -28.1106   17.5234 O.3     1  UNL1       -0.3458
     22 C          19.3999  -28.7392   18.5292 C.3     1  UNL1        0.1895
     23 C          19.2307  -27.9931   19.8542 C.3     1  UNL1        0.2373
     24 O          20.3406  -27.1150   20.0515 O.3     1  UNL1       -0.4727
     25 C          19.8820  -21.9043   17.9629 C.3     1  UNL1        0.0310
     26 C          20.0048  -23.2984   18.5217 C.ar    1  UNL1       -0.0217
     27 C          21.2324  -23.9344   18.5267 C.ar    1  UNL1       -0.0011
     28 C          21.3476  -25.2124   19.0384 C.ar    1  UNL1        0.0366
     29 C          20.2300  -25.8578   19.5476 C.ar    1  UNL1        0.1387
     30 C          18.9981  -25.2196   19.5362 C.ar    1  UNL1        0.0366
     31 C          18.8895  -23.9393   19.0291 C.ar    1  UNL1       -0.0011
@<TRIPOS>UNITY_ATOM_ATTR
13 1
charge 1
@<TRIPOS>BOND
     1    25    26    1
     2    26    31   ar
     3    26    27   ar
     4    27    28   ar
     5    28    29   ar
     6    29    30   ar
     7    29    24    1
     8    30    31   ar
     9    24    23    1
    10    23    22    1
    11    22    21    1
    12    21    20    1
    13    20    19    1
    14    19    18    1
    15    18     1    1
    16     1     6   ar
    17     1     2   ar
    18     2     3   ar
    19     3     4   ar
    20     4     5   ar
    21     4     7    1
    22     5     6   ar
    23     7     8    2
    24     8    14    1
    25     8     9    1
    26     9    10    2
    27     9    11   am
    28    11    12    1
    29    12    13    2
    30    12    14    1
    31    11    15    1
    32    13    16    1
    33    13    17    1
#	Name:			ZINC15808232
#	Creating user name:	trannguyen
#	Creation time:		Wed Dec  7 14:36:19 2022


#	Modifying user name:	trannguyen
#	Modification time:	Wed Dec  7 14:36:19 2022

@<TRIPOS>MOLECULE
ZINC15808232
 38 40 0 0 0
SMALL
GASTEIGER

@<TRIPOS>ATOM
      1 O          19.6143  -22.9534   12.8528 O.3     1  UNL1       -0.4370
      2 C          18.5579  -23.2543   12.0695 C.2     1  UNL1        0.3418
      3 O          18.5260  -22.8682   10.9167 O.2     1  UNL1       -0.2449
      4 C          17.3808  -24.2945   13.9309 C.2     1  UNL1        0.0067
      5 C          17.4510  -24.0448   12.6068 C.2     1  UNL1        0.0819
      6 C          14.1701  -26.5872   15.4889 C.ar    1  UNL1        0.1222
      7 C          14.0065  -25.2295   15.2755 C.ar    1  UNL1        0.0199
      8 C          15.0471  -24.4764   14.7744 C.ar    1  UNL1        0.0014
      9 C          16.2670  -25.0899   14.4717 C.ar    1  UNL1        0.0003
     10 C          16.4227  -26.4633   14.6852 C.ar    1  UNL1        0.0014
     11 C          15.3741  -27.2017   15.1919 C.ar    1  UNL1        0.0199
     12 S          12.8361  -27.5397   16.1355 S.O2    1  UNL1        0.0633
     13 O          11.9460  -26.6225   16.7566 O.2     1  UNL1       -0.1528
     14 O          13.4181  -28.6300   16.8366 O.2     1  UNL1       -0.1528
     15 N          12.0250  -28.1860   14.8445 N.3     1  UNL1       -0.1555
     16 C           9.6663  -28.7828   14.5961 C.3     1  UNL1        0.0206
     17 C          10.7061  -27.6671   14.4738 C.3     1  UNL1        0.0958
     18 C          12.6264  -29.2766   14.0731 C.3     1  UNL1        0.0958
     19 C          12.9023  -28.7999   12.6457 C.3     1  UNL1        0.0206
     20 C          19.9174  -21.5681   13.0291 C.3     1  UNL1        0.2737
     21 C          20.4547  -21.3444   14.4191 C.ar    1  UNL1        0.1889
     22 N          20.8968  -20.1494   14.7704 N.ar    1  UNL1       -0.1951
     23 C          21.3721  -19.9480   15.9972 C.ar    1  UNL1        0.2173
     24 N          21.4018  -20.9500   16.8691 N.ar    1  UNL1       -0.1810
     25 C          20.9566  -22.1497   16.5122 C.ar    1  UNL1        0.2242
     26 N          20.4778  -22.3421   15.2851 N.ar    1  UNL1       -0.1947
     27 N          21.8338  -18.7000   16.3629 N.pl3   1  UNL1       -0.3273
     28 H          21.8115  -17.9579   15.7164 H       1  UNL1        0.1452
     29 H          22.1856  -18.5518   17.2704 H       1  UNL1        0.1452
     30 N          20.9859  -23.1949   17.4149 N.pl3   1  UNL1       -0.2824
     31 H          21.8264  -23.4275   17.8716 H       1  UNL1        0.1551
     32 C          19.8215  -23.9226   17.6800 C.ar    1  UNL1        0.0504
     33 C          18.7195  -23.2916   18.2428 C.ar    1  UNL1        0.0144
     34 C          17.5694  -24.0122   18.4990 C.ar    1  UNL1       -0.0030
     35 C          17.5181  -25.3626   18.2057 C.ar    1  UNL1       -0.0218
     36 C          18.6152  -25.9948   17.6498 C.ar    1  UNL1       -0.0030
     37 C          19.7665  -25.2790   17.3863 C.ar    1  UNL1        0.0144
     38 C          16.2637  -26.1470   18.4924 C.3     1  UNL1        0.0310
@<TRIPOS>BOND
     1    16    17    1
     2    17    15    1
     3    15    18    1
     4    15    12    1
     5    18    19    1
     6    12    13    2
     7    12    14    2
     8    12     6    1
     9     6    11   ar
    10     6     7   ar
    11     7     8   ar
    12     8     9   ar
    13     9    10   ar
    14     9     4    1
    15    10    11   ar
    16     4     5    2
    17     5     2    1
    18     2     3    2
    19     2     1    1
    20     1    20    1
    21    20    21    1
    22    21    26   ar
    23    21    22   ar
    24    22    23   ar
    25    23    24   ar
    26    23    27    1
    27    24    25   ar
    28    25    26   ar
    29    25    30    1
    30    30    32    1
    31    32    37   ar
    32    32    33   ar
    33    33    34   ar
    34    34    35   ar
    35    35    36   ar
    36    35    38    1
    37    36    37   ar
    38    30    31    1
    39    27    28    1
    40    27    29    1
#	Name:			ZINC15826142
#	Creating user name:	trannguyen
#	Creation time:		Wed Dec  7 14:36:19 2022


#	Modifying user name:	trannguyen
#	Modification time:	Wed Dec  7 14:36:19 2022

@<TRIPOS>MOLECULE
ZINC15826142
 52 57 0 0 0
SMALL
GASTEIGER

@<TRIPOS>ATOM
      1 C          18.4936  -25.1195   16.0575 C.3     1  UNL1        0.0714
      2 C          19.4142  -26.2873   16.3496 C.2     1  UNL1        0.1994
      3 O          20.0238  -26.9525   15.5470 O.2     1  UNL1       -0.2902
      4 C          19.4108  -26.4455   17.8660 C.3     1  UNL1        0.1255
      5 C          18.0860  -25.7630   18.2890 C.3     1  UNL1        0.1102
      6 N          18.0045  -24.6377   17.3481 N.4     1  UNL1        0.2519
      7 H          17.0379  -24.3240   17.2609 H       1  UNL1        0.2035
      8 H          18.5625  -23.8494   17.6763 H       1  UNL1        0.2035
      9 C          19.4037  -27.9257   18.2532 C.3     1  UNL1        0.0754
     10 C          20.8110  -28.3977   18.5501 C.ar    1  UNL1       -0.0222
     11 C          21.9971  -28.1644   17.8742 C.ar    1  UNL1       -0.0045
     12 C          23.1796  -28.7064   18.3382 C.ar    1  UNL1       -0.0003
     13 C          23.1803  -29.4843   19.4811 C.ar    1  UNL1       -0.0003
     14 C          21.9985  -29.7181   20.1564 C.ar    1  UNL1       -0.0045
     15 C          20.8118  -29.1752   19.6928 C.ar    1  UNL1       -0.0224
     16 C          19.4050  -29.2789   20.2420 C.3     1  UNL1        0.0700
     17 C          18.6227  -28.1315   19.5685 C.3     1  UNL1        0.1793
     18 O          18.6577  -26.9299   20.3829 O.3     1  UNL1       -0.4379
     19 C          17.8955  -26.9214   21.4928 C.2     1  UNL1        0.3984
     20 O          16.7912  -26.4151   21.4676 O.2     1  UNL1       -0.2267
     21 N          18.3575  -27.4743   22.6318 N.am    1  UNL1       -0.2950
     22 H          19.2523  -27.8845   22.6522 H       1  UNL1        0.1482
     23 H          17.8003  -27.4680   23.4433 H       1  UNL1        0.1482
     24 C          19.2664  -24.0176   15.3297 C.3     1  UNL1        0.0880
     25 C          20.7689  -24.2695   15.4713 C.3     1  UNL1        0.1347
     26 O          21.2487  -23.6334   16.6576 O.3     1  UNL1       -0.3825
     27 H          21.0847  -22.6790   16.6017 H       1  UNL1        0.2104
     28 C          21.4989  -23.6971   14.2546 C.3     1  UNL1        0.1060
     29 N          21.9614  -24.7947   13.4018 N.am    1  UNL1       -0.2696
     30 C          23.2743  -25.0931   13.3403 C.2     1  UNL1        0.4016
     31 O          24.0737  -24.4549   13.9962 O.2     1  UNL1       -0.2264
     32 H          21.3133  -25.3145   12.8736 H       1  UNL1        0.1528
     33 O          23.6995  -26.1018   12.5565 O.3     1  UNL1       -0.4357
     34 C          24.9169  -25.8788   11.7974 C.3     1  UNL1        0.2024
     35 C          25.9797  -26.9422   12.1536 C.3     1  UNL1        0.0784
     36 C          26.2406  -27.6743   10.8186 C.3     1  UNL1        0.1461
     37 O          25.8641  -26.7247    9.7975 O.3     1  UNL1       -0.3498
     38 C          24.6605  -26.0904   10.2888 C.3     1  UNL1        0.1856
     39 C          20.5442  -22.8024   13.4615 C.3     1  UNL1        0.0485
     40 C          21.5369  -18.7041   14.1442 C.ar    1  UNL1       -0.0000
     41 C          21.0284  -19.4730   15.1744 C.ar    1  UNL1       -0.0003
     42 C          20.7070  -20.7991   14.9534 C.ar    1  UNL1       -0.0042
     43 C          20.8943  -21.3565   13.7023 C.ar    1  UNL1       -0.0204
     44 C          21.4080  -20.5892   12.6736 C.ar    1  UNL1       -0.0042
     45 C          21.7246  -19.2616   12.8932 C.ar    1  UNL1       -0.0003
     46 C          17.3188  -25.5864   15.1958 C.3     1  UNL1        0.0832
     47 C          17.4574  -25.0180   13.8070 C.ar    1  UNL1       -0.0162
     48 C          18.2474  -25.6611   12.8727 C.ar    1  UNL1       -0.0041
     49 C          18.3710  -25.1422   11.5974 C.ar    1  UNL1       -0.0003
     50 C          17.7118  -23.9753   11.2592 C.ar    1  UNL1       -0.0000
     51 C          16.9258  -23.3293   12.1951 C.ar    1  UNL1       -0.0003
     52 C          16.7988  -23.8505   13.4691 C.ar    1  UNL1       -0.0041
@<TRIPOS>UNITY_ATOM_ATTR
6 1
charge 1
@<TRIPOS>BOND
     1    40    45   ar
     2    40    41   ar
     3    41    42   ar
     4    42    43   ar
     5    43    44   ar
     6    43    39    1
     7    44    45   ar
     8    39    28    1
     9    28    25    1
    10    28    29    1
    11    25    24    1
    12    25    26    1
    13    24     1    1
    14     1     2    1
    15     1    46    1
    16     1     6    1
    17     2     3    2
    18     2     4    1
    19     4     5    1
    20     4     9    1
    21     5     6    1
    22     9    17    1
    23     9    10    1
    24    10    15   ar
    25    10    11   ar
    26    11    12   ar
    27    12    13   ar
    28    13    14   ar
    29    14    15   ar
    30    15    16    1
    31    16    17    1
    32    17    18    1
    33    18    19    1
    34    19    20    2
    35    19    21   am
    36    46    47    1
    37    47    52   ar
    38    47    48   ar
    39    48    49   ar
    40    49    50   ar
    41    50    51   ar
    42    51    52   ar
    43    29    30   am
    44    30    31    2
    45    30    33    1
    46    33    34    1
    47    34    38    1
    48    34    35    1
    49    35    36    1
    50    36    37    1
    51    37    38    1
    52    21    22    1
    53    21    23    1
    54    26    27    1
    55    29    32    1
    56     6     7    1
    57     6     8    1
#	Name:			ZINC15840826
#	Creating user name:	trannguyen
#	Creation time:		Wed Dec  7 14:36:20 2022


#	Modifying user name:	trannguyen
#	Modification time:	Wed Dec  7 14:36:20 2022

@<TRIPOS>MOLECULE
ZINC15840826
 33 35 0 0 0
SMALL
GASTEIGER

@<TRIPOS>ATOM
      1 C          20.2266  -22.8294   14.1391 C.ar    1  UNL1        0.0212
      2 C          19.7337  -23.7533   15.0434 C.ar    1  UNL1       -0.0005
      3 C          18.4339  -24.2030   14.9354 C.ar    1  UNL1        0.0043
      4 C          17.6158  -23.7239   13.9111 C.ar    1  UNL1        0.0548
      5 C          18.1210  -22.7963   12.9988 C.ar    1  UNL1        0.0043
      6 C          19.4207  -22.3505   13.1214 C.ar    1  UNL1       -0.0005
      7 C          16.2218  -24.2015   13.7895 C.2     1  UNL1        0.2614
      8 O          15.3867  -23.5068   13.2442 O.2     1  UNL1       -0.2686
      9 N          15.8772  -25.4073   14.2834 N.am    1  UNL1       -0.2301
     10 H          16.5545  -25.9718   14.7214 H       1  UNL1        0.1731
     11 N          14.5550  -25.8574   14.1734 N.am    1  UNL1       -0.2301
     12 C          14.2498  -27.1335   14.4811 C.2     1  UNL1        0.2618
     13 O          15.1220  -27.8943   14.8542 O.2     1  UNL1       -0.2686
     14 H          13.8488  -25.2415   13.8713 H       1  UNL1        0.1731
     15 C          12.8588  -27.6071   14.3653 C.ar    1  UNL1        0.0605
     16 C          12.3346  -27.9504   13.1162 C.ar    1  UNL1        0.0050
     17 C          11.0355  -28.3968   13.0154 C.ar    1  UNL1        0.0002
     18 C          10.2394  -28.4985   14.1460 C.ar    1  UNL1        0.0005
     19 C          10.7396  -28.1587   15.3854 C.ar    1  UNL1        0.0063
     20 C          12.0501  -27.7106   15.5087 C.ar    1  UNL1        0.0296
     21 S          12.6923  -27.2745   17.0905 S.3     1  UNL1       -0.1126
     22 C          11.2673  -27.4337   18.2016 C.3     1  UNL1        0.0742
     23 C          21.6472  -22.3422   14.2633 C.3     1  UNL1        0.2320
     24 O          22.4921  -23.4297   14.6452 O.3     1  UNL1       -0.4706
     25 C          24.7227  -25.2068   11.6606 C.ar    1  UNL1        0.1388
     26 C          23.9192  -25.9837   12.4819 C.ar    1  UNL1        0.0400
     27 C          23.1726  -25.3890   13.4804 C.ar    1  UNL1        0.0400
     28 C          23.2270  -24.0151   13.6622 C.ar    1  UNL1        0.1393
     29 C          24.0268  -23.2376   12.8378 C.ar    1  UNL1        0.0400
     30 C          24.7768  -23.8329   11.8422 C.ar    1  UNL1        0.0400
     31 O          25.4576  -25.7923   10.6777 O.3     1  UNL1       -0.4755
     32 C          25.2106  -27.8443    9.4252 C.3     1  UNL1        0.0512
     33 C          25.6293  -27.2090   10.7525 C.3     1  UNL1        0.2055
@<TRIPOS>BOND
     1    32    33    1
     2    33    31    1
     3    31    25    1
     4    25    30   ar
     5    25    26   ar
     6    26    27   ar
     7    27    28   ar
     8    28    29   ar
     9    28    24    1
    10    29    30   ar
    11    24    23    1
    12    23     1    1
    13     1     6   ar
    14     1     2   ar
    15     2     3   ar
    16     3     4   ar
    17     4     5   ar
    18     4     7    1
    19     5     6   ar
    20     7     8    2
    21     7     9   am
    22     9    11    1
    23    11    12   am
    24    12    13    2
    25    12    15    1
    26    15    20   ar
    27    15    16   ar
    28    16    17   ar
    29    17    18   ar
    30    18    19   ar
    31    19    20   ar
    32    20    21    1
    33    21    22    1
    34     9    10    1
    35    11    14    1
#	Name:			ZINC15887943
#	Creating user name:	trannguyen
#	Creation time:		Wed Dec  7 14:36:20 2022


#	Modifying user name:	trannguyen
#	Modification time:	Wed Dec  7 14:36:20 2022

@<TRIPOS>MOLECULE
ZINC15887943
 36 38 0 0 0
SMALL
GASTEIGER

@<TRIPOS>ATOM
      1 C          17.2385  -23.6787   13.5015 C.ar    1  UNL1        0.0561
      2 C          17.7514  -23.1053   12.3365 C.ar    1  UNL1        0.0046
      3 C          19.1130  -23.0986   12.1165 C.ar    1  UNL1        0.0015
      4 C          19.9695  -23.6676   13.0427 C.ar    1  UNL1        0.0202
      5 C          19.4674  -24.2417   14.1967 C.ar    1  UNL1        0.1256
      6 C          18.1077  -24.2508   14.4313 C.ar    1  UNL1        0.0247
      7 N          15.2481  -24.5597   14.6227 N.am    1  UNL1       -0.2311
      8 C          15.7805  -23.6853   13.7460 C.2     1  UNL1        0.2614
      9 O          15.0618  -22.9021   13.1564 O.2     1  UNL1       -0.2686
     10 H          15.8302  -25.1940   15.1004 H       1  UNL1        0.1731
     11 N          13.8665  -24.5659   14.8544 N.am    1  UNL1       -0.2453
     12 H          13.3437  -23.7401   14.7358 H       1  UNL1        0.1718
     13 C          13.2528  -25.7023   15.2396 C.2     1  UNL1        0.1511
     14 S          14.1065  -26.8667   16.1597 S.2     1  UNL1       -0.0171
     15 N          11.9670  -25.9222   14.9005 N.am    1  UNL1       -0.2948
     16 H          11.2686  -25.2874   15.1806 H       1  UNL1        0.1539
     17 C          13.2462  -30.2433   12.9357 C.3     1  UNL1        0.0311
     18 C          12.2256  -29.1623   13.1823 C.ar    1  UNL1       -0.0206
     19 C          10.9486  -29.2872   12.6659 C.ar    1  UNL1       -0.0042
     20 C          10.0078  -28.3002   12.8943 C.ar    1  UNL1        0.0009
     21 C          10.3422  -27.1832   13.6349 C.ar    1  UNL1        0.0146
     22 C          11.6249  -27.0523   14.1503 C.ar    1  UNL1        0.0493
     23 C          12.5678  -28.0457   13.9192 C.ar    1  UNL1        0.0104
     24 S          20.5666  -24.9635   15.3696 S.O2    1  UNL1        0.0766
     25 O          20.0344  -26.2409   15.6922 O.2     1  UNL1       -0.1497
     26 O          21.8797  -24.7934   14.8539 O.2     1  UNL1       -0.1497
     27 N          20.4781  -24.0518   16.7492 N.pl3   1  UNL1       -0.1888
     28 C          20.3527  -24.7072   18.0534 C.3     1  UNL1        0.1392
     29 C          20.5232  -22.6554   16.6693 C.ar    1  UNL1        0.0691
     30 C          21.3418  -22.0393   15.7320 C.ar    1  UNL1        0.0192
     31 C          21.3813  -20.6613   15.6499 C.ar    1  UNL1        0.0382
     32 C          20.6127  -19.8925   16.5114 C.ar    1  UNL1        0.1388
     33 C          19.7987  -20.5069   17.4514 C.ar    1  UNL1        0.0382
     34 C          19.7537  -21.8851   17.5310 C.ar    1  UNL1        0.0192
     35 O          20.6568  -18.5354   16.4339 O.3     1  UNL1       -0.4714
     36 C          21.8160  -17.9574   15.8305 C.3     1  UNL1        0.2525
@<TRIPOS>BOND
     1    17    18    1
     2    18    23   ar
     3    18    19   ar
     4    19    20   ar
     5    20    21   ar
     6    21    22   ar
     7    22    23   ar
     8    22    15    1
     9    15    13    1
    10    13    14    2
    11    13    11    1
    12    11     7    1
    13     7     8   am
    14     8     9    2
    15     8     1    1
    16     1     6   ar
    17     1     2   ar
    18     2     3   ar
    19     3     4   ar
    20     4     5   ar
    21     5     6   ar
    22     5    24    1
    23    24    25    2
    24    24    26    2
    25    24    27    1
    26    27    28    1
    27    27    29    1
    28    29    34   ar
    29    29    30   ar
    30    30    31   ar
    31    31    32   ar
    32    32    33   ar
    33    32    35    1
    34    33    34   ar
    35    35    36    1
    36    15    16    1
    37    11    12    1
    38     7    10    1
#	Name:			ZINC15909500
#	Creating user name:	trannguyen
#	Creation time:		Wed Dec  7 14:36:20 2022


#	Modifying user name:	trannguyen
#	Modification time:	Wed Dec  7 14:36:20 2022

@<TRIPOS>MOLECULE
ZINC15909500
 35 37 0 0 0
SMALL
GASTEIGER

@<TRIPOS>ATOM
      1 N          19.8520  -24.5240   15.9121 N.pl3   1  UNL1       -0.1901
      2 C          18.5274  -24.6740   15.4861 C.ar    1  UNL1        0.0690
      3 C          18.0700  -23.9717   14.3789 C.ar    1  UNL1        0.0192
      4 C          16.7643  -24.1248   13.9558 C.ar    1  UNL1        0.0382
      5 C          15.9066  -24.9706   14.6434 C.ar    1  UNL1        0.1388
      6 C          16.3612  -25.6685   15.7525 C.ar    1  UNL1        0.0382
      7 C          17.6683  -25.5209   16.1736 C.ar    1  UNL1        0.0192
      8 O          14.6193  -25.1161   14.2297 O.3     1  UNL1       -0.4714
      9 C          13.7085  -25.7268   15.1460 C.3     1  UNL1        0.2525
     10 S          20.2839  -23.2132   16.8275 S.O2    1  UNL1        0.0763
     11 O          19.1178  -22.8073   17.5310 O.2     1  UNL1       -0.1497
     12 O          21.4914  -23.5612   17.4908 O.2     1  UNL1       -0.1497
     13 C          21.6381  -18.7409   13.0104 C.3     1  UNL1        0.0310
     14 C          21.3003  -19.8579   13.9639 C.ar    1  UNL1       -0.0221
     15 C          21.4321  -21.1741   13.5614 C.ar    1  UNL1       -0.0029
     16 C          21.1218  -22.1985   14.4358 C.ar    1  UNL1        0.0195
     17 C          20.6798  -21.9072   15.7130 C.ar    1  UNL1        0.1214
     18 C          20.5431  -20.5915   16.1136 C.ar    1  UNL1       -0.0033
     19 C          20.8584  -19.5667   15.2407 C.ar    1  UNL1       -0.0072
     20 C          20.0553  -20.2740   17.5037 C.3     1  UNL1        0.0324
     21 C          20.8564  -25.5264   15.5483 C.3     1  UNL1        0.1255
     22 C          20.7638  -25.8205   14.0497 C.3     1  UNL1        0.1099
     23 C          22.1504  -25.8751   13.4619 C.2     1  UNL1        0.2397
     24 O          23.0571  -25.2665   13.9895 O.2     1  UNL1       -0.2735
     25 N          22.3828  -26.6002   12.3498 N.am    1  UNL1       -0.2346
     26 H          21.6468  -27.0941   11.9214 H       1  UNL1        0.1728
     27 N          23.6719  -26.6509   11.8034 N.am    1  UNL1       -0.2458
     28 H          24.2834  -25.8871   11.9131 H       1  UNL1        0.1718
     29 C          24.0747  -27.7452   11.1276 C.2     1  UNL1        0.1473
     30 S          22.9957  -29.0542   10.8971 S.2     1  UNL1       -0.0174
     31 N          25.3270  -27.8090   10.6334 N.am    1  UNL1       -0.3166
     32 H          26.0923  -27.9144   11.2437 H       1  UNL1        0.1484
     33 C          25.5494  -27.7216    9.1880 C.3     1  UNL1        0.0707
     34 C          26.1258  -26.4148    8.6397 C.3     1  UNL1        0.0212
     35 C          24.6568  -26.7671    8.3924 C.3     1  UNL1        0.0212
@<TRIPOS>BOND
     1    13    14    1
     2    14    19   ar
     3    14    15   ar
     4    15    16   ar
     5    16    17   ar
     6    17    18   ar
     7    17    10    1
     8    18    19   ar
     9    18    20    1
    10    10    11    2
    11    10    12    2
    12    10     1    1
    13     1    21    1
    14     1     2    1
    15    21    22    1
    16    22    23    1
    17    23    24    2
    18    23    25   am
    19    25    27    1
    20    27    29    1
    21    29    30    2
    22    29    31    1
    23    31    33    1
    24    33    35    1
    25    33    34    1
    26    34    35    1
    27     2     7   ar
    28     2     3   ar
    29     3     4   ar
    30     4     5   ar
    31     5     6   ar
    32     5     8    1
    33     6     7   ar
    34     8     9    1
    35    25    26    1
    36    27    28    1
    37    31    32    1
#	Name:			ZINC15995205
#	Creating user name:	trannguyen
#	Creation time:		Wed Dec  7 14:36:19 2022


#	Modifying user name:	trannguyen
#	Modification time:	Wed Dec  7 14:36:19 2022

@<TRIPOS>MOLECULE
ZINC15995205
 33 35 0 0 0
SMALL
GASTEIGER

@<TRIPOS>ATOM
      1 C          14.4190  -25.5135   14.6155 C.2     1  UNL1        0.2335
      2 O          14.0047  -24.3815   14.7492 O.2     1  UNL1       -0.2742
      3 N          13.6038  -26.5614   14.8475 N.am    1  UNL1       -0.3019
      4 H          13.9401  -27.4802   14.7390 H       1  UNL1        0.1495
      5 C          15.8454  -25.7484   14.1899 C.3     1  UNL1        0.1428
      6 S          16.5848  -24.1787   13.6607 S.3     1  UNL1       -0.1222
      7 C          18.1319  -24.6728   12.8525 C.3     1  UNL1        0.1246
      8 C          18.9452  -25.5538   13.8030 C.3     1  UNL1        0.0214
      9 N          19.8583  -22.9749   13.3577 N.am    1  UNL1       -0.2660
     10 C          18.9297  -23.4436   12.5007 C.2     1  UNL1        0.2369
     11 O          18.7361  -22.8763   11.4464 O.2     1  UNL1       -0.2738
     12 H          20.0155  -23.4355   14.2134 H       1  UNL1        0.1564
     13 C          21.7441  -18.3619   13.2178 C.3     1  UNL1        0.0754
     14 C          21.4180  -19.8133   12.9769 C.ar    1  UNL1        0.1562
     15 C          20.5072  -20.5584   13.6437 C.ar    1  UNL1        0.0734
     16 C          20.5968  -21.8370   13.0320 C.ar    1  UNL1        0.1760
     17 N          21.5142  -21.7353   12.1063 N.ar    1  UNL1       -0.0621
     18 O          21.9747  -20.6182   12.0603 O.2     1  UNL1       -0.3565
     19 C          12.2171  -26.3331   15.2612 C.3     1  UNL1        0.1114
     20 C          11.2694  -26.8642   14.1838 C.3     1  UNL1        0.1232
     21 N          11.3183  -28.3283   14.1691 N.am    1  UNL1       -0.2154
     22 C          12.0581  -28.9460   13.2647 C.2     1  UNL1        0.2616
     23 O          12.7003  -28.3164   12.4435 O.2     1  UNL1       -0.2689
     24 C          12.0823  -30.3735   13.2795 C.2     1  UNL1        0.0880
     25 C          12.7541  -31.2379   12.4671 C.2     1  UNL1        0.0177
     26 S          10.9860  -30.7186   14.6486 S.3     1  UNL1       -0.0252
     27 C          10.6065  -29.0274   15.0808 C.2     1  UNL1        0.2865
     28 O           9.8859  -28.6106   15.9680 O.2     1  UNL1       -0.2620
     29 C          12.6319  -32.6329   12.6639 C.ar    1  UNL1        0.0301
     30 C          13.4179  -33.4816   13.4362 C.ar    1  UNL1        0.0070
     31 C          13.0755  -34.8108   13.4451 C.ar    1  UNL1        0.0075
     32 C          12.0008  -35.2247   12.7235 C.ar    1  UNL1        0.0354
     33 S          11.4292  -33.7633   11.9867 S.2     1  UNL1       -0.0864
@<TRIPOS>BOND
     1    13    14    1
     2    14    18   ar
     3    14    15   ar
     4    15    16   ar
     5    16    17   ar
     6    16     9    1
     7    17    18   ar
     8     9    10   am
     9    10    11    2
    10    10     7    1
    11     7     8    1
    12     7     6    1
    13     6     5    1
    14     5     1    1
    15     1     2    2
    16     1     3   am
    17     3    19    1
    18    19    20    1
    19    20    21    1
    20    21    27   am
    21    21    22   am
    22    22    23    2
    23    22    24    1
    24    24    25    2
    25    24    26    1
    26    25    29    1
    27    29    33   ar
    28    29    30   ar
    29    30    31   ar
    30    31    32   ar
    31    32    33   ar
    32    26    27    1
    33    27    28    2
    34     9    12    1
    35     3     4    1
#	Name:			ZINC16019388
#	Creating user name:	trannguyen
#	Creation time:		Wed Dec  7 14:36:20 2022


#	Modifying user name:	trannguyen
#	Modification time:	Wed Dec  7 14:36:20 2022

@<TRIPOS>MOLECULE
ZINC16019388
 29 30 0 0 0
SMALL
GASTEIGER

@<TRIPOS>ATOM
      1 N          14.3328  -27.3021   14.2095 N.am    1  UNL1       -0.2804
      2 C          14.0834  -26.0196   14.5402 C.2     1  UNL1        0.2496
      3 O          12.9779  -25.6965   14.9343 O.2     1  UNL1       -0.2698
      4 H          15.2450  -27.5783   13.9627 H       1  UNL1        0.1552
      5 C          11.2411  -30.0987   14.2313 C.ar    1  UNL1        0.0504
      6 C          11.4848  -29.3419   13.0926 C.ar    1  UNL1        0.0159
      7 C          12.5086  -28.4160   13.0853 C.ar    1  UNL1        0.0160
      8 C          13.2950  -28.2412   14.2168 C.ar    1  UNL1        0.0506
      9 C          13.0512  -28.9982   15.3556 C.ar    1  UNL1        0.0160
     10 C          12.0273  -29.9240   15.3627 C.ar    1  UNL1        0.0159
     11 C           9.3568  -33.3518   14.0128 C.3     1  UNL1        0.0949
     12 C          10.4500  -32.3200   13.9051 C.2     1  UNL1        0.2266
     13 O          11.5530  -32.6435   13.5179 O.2     1  UNL1       -0.2748
     14 N          10.2020  -31.0380   14.2388 N.am    1  UNL1       -0.2839
     15 H           9.2904  -30.7618   14.4880 H       1  UNL1        0.1549
     16 C          15.1408  -25.0161   14.4257 C.2     1  UNL1        0.0580
     17 C          16.4361  -25.3890   14.5000 C.2     1  UNL1        0.0048
     18 C          17.4991  -24.3802   14.3849 C.ar    1  UNL1        0.0034
     19 C          17.4765  -23.4534   13.3364 C.ar    1  UNL1        0.0033
     20 C          18.4739  -22.5091   13.2309 C.ar    1  UNL1        0.0401
     21 C          19.5030  -22.4738   14.1625 C.ar    1  UNL1        0.1727
     22 C          19.5323  -23.3936   15.2101 C.ar    1  UNL1        0.1724
     23 C          18.5337  -24.3402   15.3267 C.ar    1  UNL1        0.0400
     24 O          20.5420  -23.3550   16.1204 O.3     1  UNL1       -0.4684
     25 C          20.2377  -23.7942   17.4457 C.3     1  UNL1        0.2526
     26 O          20.4836  -21.5405   14.0531 O.3     1  UNL1       -0.4676
     27 C          20.3027  -20.5217   13.0676 C.3     1  UNL1        0.2319
     28 C          21.5395  -19.6636   12.9990 C.2     1  UNL1        0.0207
     29 C          21.6004  -18.5464   13.6803 C.2     1  UNL1       -0.0011
@<TRIPOS>BOND
     1    11    12    1
     2    12    13    2
     3    12    14   am
     4    14     5    1
     5     5    10   ar
     6     5     6   ar
     7     6     7   ar
     8     7     8   ar
     9     8     9   ar
    10     8     1    1
    11     9    10   ar
    12     1     2   am
    13     2     3    2
    14     2    16    1
    15    16    17    2
    16    17    18    1
    17    18    23   ar
    18    18    19   ar
    19    19    20   ar
    20    20    21   ar
    21    21    22   ar
    22    21    26    1
    23    22    23   ar
    24    22    24    1
    25    24    25    1
    26    26    27    1
    27    27    28    1
    28    28    29    2
    29    14    15    1
    30     1     4    1
#	Name:			ZINC16052279
#	Creating user name:	trannguyen
#	Creation time:		Wed Dec  7 14:36:19 2022


#	Modifying user name:	trannguyen
#	Modification time:	Wed Dec  7 14:36:19 2022

@<TRIPOS>MOLECULE
ZINC16052279
 46 49 0 0 0
SMALL
GASTEIGER

@<TRIPOS>ATOM
      1 C          21.2204  -26.1519   19.0587 C.ar    1  UNL1        0.0307
      2 C          19.9779  -25.9912   19.5575 C.ar    1  UNL1       -0.0132
      3 C          19.5631  -24.6821   19.2423 C.ar    1  UNL1       -0.0129
      4 C          20.5678  -24.0929   18.5628 C.ar    1  UNL1        0.0350
      5 N          21.5855  -24.9920   18.4419 N.ar    1  UNL1       -0.3599
      6 C          19.1797  -27.0223   20.3128 C.3     1  UNL1        0.0319
      7 H          22.4423  -24.8305   17.9848 H       1  UNL1        0.1653
      8 C          22.0586  -27.4002   19.1602 C.3     1  UNL1        0.0627
      9 C          20.9708  -28.5631   17.2038 C.3     1  UNL1        0.0270
     10 C          21.0870  -30.0482   17.6181 C.3     1  UNL1        0.0781
     11 C          22.5760  -30.2809   17.7508 C.2     1  UNL1        0.2220
     12 O          23.1084  -31.3700   17.7862 O.2     1  UNL1       -0.2751
     13 N          23.2247  -29.1035   17.8231 N.am    1  UNL1       -0.3056
     14 C          22.2866  -27.9765   17.7614 C.3     1  UNL1        0.0778
     15 C          20.3864  -30.2870   18.9571 C.3     1  UNL1        0.0096
     16 H          24.2013  -29.0106   17.9064 H       1  UNL1        0.1494
     17 C          20.0281  -29.5298   15.1015 C.3     1  UNL1        0.0001
     18 C          20.9103  -28.4225   15.6814 C.3     1  UNL1        0.0021
     19 C          20.5638  -22.6853   18.0244 C.3     1  UNL1        0.0863
     20 C          20.1821  -22.7063   16.5666 C.ar    1  UNL1        0.0350
     21 C          20.1992  -21.6491   15.7297 C.ar    1  UNL1       -0.0129
     22 C          19.7779  -22.1056   14.4651 C.ar    1  UNL1       -0.0129
     23 C          19.5116  -23.4226   14.5795 C.ar    1  UNL1        0.0349
     24 N          19.7610  -23.7977   15.8663 N.ar    1  UNL1       -0.3596
     25 C          19.6459  -21.2742   13.2152 C.3     1  UNL1        0.0319
     26 H          19.6546  -24.7064   16.2298 H       1  UNL1        0.1653
     27 C          19.0279  -24.3254   13.4740 C.3     1  UNL1        0.0860
     28 C          17.9444  -25.2300   14.0021 C.2     1  UNL1        0.0534
     29 N          18.1553  -26.4000   14.5565 N.am    1  UNL1       -0.1798
     30 C          16.9860  -26.9600   14.9232 C.2     1  UNL1        0.2684
     31 O          16.8343  -28.0366   15.4606 O.2     1  UNL1       -0.2680
     32 C          15.9050  -25.9876   14.5348 C.2     1  UNL1        0.0524
     33 C          16.5627  -24.9329   13.9673 C.2     1  UNL1       -0.0058
     34 C          15.9319  -23.6836   13.4083 C.3     1  UNL1        0.0322
     35 C          14.5074  -26.1342   14.7179 C.2     1  UNL1        0.0043
     36 C          13.8270  -27.0389   13.9959 C.2     1  UNL1        0.0001
     37 C          20.5999  -20.2395   16.0811 C.3     1  UNL1        0.0331
     38 C          22.0054  -19.9602   15.5452 C.3     1  UNL1        0.0464
     39 C          22.1829  -18.4765   15.3497 C.2     1  UNL1        0.0507
     40 O          22.5962  -17.7930   16.2562 O.co2   1  UNL1       -0.5492
     41 O          21.8818  -17.9144   14.1686 O.co2   1  UNL1       -0.5492
     42 C          18.2398  -24.0556   19.5992 C.3     1  UNL1        0.0331
     43 C          17.2198  -24.3565   18.4993 C.3     1  UNL1        0.0464
     44 C          16.3144  -25.4751   18.9462 C.2     1  UNL1        0.0507
     45 O          15.8813  -26.2616   18.1375 O.co2   1  UNL1       -0.5492
     46 O          15.9891  -25.5981   20.2427 O.co2   1  UNL1       -0.5492
@<TRIPOS>UNITY_ATOM_ATTR
41 1
charge -1
46 1
charge -1
@<TRIPOS>BOND
     1    17    18    1
     2    18     9    1
     3     9    14    1
     4     9    10    1
     5    10    11    1
     6    10    15    1
     7    11    12    2
     8    11    13   am
     9    13    14    1
    10    14     8    1
    11     8     1    1
    12     1     5   ar
    13     1     2   ar
    14     2     3   ar
    15     2     6    1
    16     3     4   ar
    17     3    42    1
    18     4     5   ar
    19     4    19    1
    20    19    20    1
    21    20    24   ar
    22    20    21   ar
    23    21    22   ar
    24    21    37    1
    25    22    23   ar
    26    22    25    1
    27    23    24   ar
    28    23    27    1
    29    27    28    1
    30    28    33    1
    31    28    29    2
    32    29    30    1
    33    30    31    2
    34    30    32    1
    35    32    33    2
    36    32    35    1
    37    33    34    1
    38    35    36    2
    39    37    38    1
    40    38    39    1
    41    39    40   ar
    42    39    41   ar
    43    42    43    1
    44    43    44    1
    45    44    45   ar
    46    44    46   ar
    47    13    16    1
    48     5     7    1
    49    24    26    1
#	Name:			ZINC16052448
#	Creating user name:	trannguyen
#	Creation time:		Wed Dec  7 14:36:19 2022


#	Modifying user name:	trannguyen
#	Modification time:	Wed Dec  7 14:36:19 2022

@<TRIPOS>MOLECULE
ZINC16052448
 42 45 0 0 0
SMALL
GASTEIGER

@<TRIPOS>ATOM
      1 C          18.2326  -24.4840   15.2661 C.3     1  UNL1        0.1463
      2 O          18.0528  -23.7200   14.0719 O.3     1  UNL1       -0.3813
      3 H          17.7598  -22.8244   14.3022 H       1  UNL1        0.2105
      4 C          16.9074  -24.5607   16.0268 C.3     1  UNL1        0.1266
      5 N          16.1075  -25.6709   15.5036 N.3     1  UNL1       -0.1530
      6 S          14.9893  -25.3970   14.3133 S.O2    1  UNL1        0.0634
      7 O          14.4421  -24.1087   14.5589 O.2     1  UNL1       -0.1528
      8 O          15.6138  -25.7377   13.0832 O.2     1  UNL1       -0.1528
      9 C          13.6813  -26.5534   14.5512 C.ar    1  UNL1        0.1228
     10 C          12.8014  -26.4061   15.6146 C.ar    1  UNL1        0.0215
     11 C          11.7816  -27.2819   15.8236 C.ar    1  UNL1        0.0210
     12 C          11.5843  -28.3794   14.9565 C.ar    1  UNL1        0.0880
     13 C          12.4954  -28.5046   13.8829 C.ar    1  UNL1        0.0499
     14 C          13.5190  -27.6118   13.6772 C.ar    1  UNL1        0.0279
     15 S          11.9084  -29.9671   13.0658 S.2     1  UNL1       -0.0645
     16 C          10.5762  -30.3040   14.1270 C.ar    1  UNL1        0.1345
     17 N          10.6391  -29.3410   15.0030 N.ar    1  UNL1       -0.2363
     18 C          16.2968  -27.0236   16.0335 C.3     1  UNL1        0.0958
     19 C          16.5138  -26.9530   17.5464 C.3     1  UNL1        0.0178
     20 C          15.2453  -27.4161   18.2657 C.3     1  UNL1        0.0015
     21 C          18.6535  -27.9762   16.7608 C.3     1  UNL1        0.0000
     22 C          17.6818  -27.8607   17.9370 C.3     1  UNL1        0.0014
     23 C          19.2883  -23.8127   16.1469 C.3     1  UNL1        0.1044
     24 N          19.6129  -22.4929   15.6002 N.am    1  UNL1       -0.2997
     25 C          20.9002  -22.1334   15.4267 C.2     1  UNL1        0.2460
     26 O          21.7918  -22.9043   15.7238 O.2     1  UNL1       -0.2701
     27 H          18.8908  -21.8686   15.3595 H       1  UNL1        0.1498
     28 C          21.2279  -20.8013   14.8749 C.ar    1  UNL1        0.0564
     29 C          21.0748  -20.5515   13.5100 C.ar    1  UNL1        0.0047
     30 C          21.3816  -19.3075   12.9984 C.ar    1  UNL1        0.0033
     31 C          21.8406  -18.3055   13.8338 C.ar    1  UNL1        0.0366
     32 C          21.9958  -18.5445   15.1923 C.ar    1  UNL1        0.1338
     33 C          21.6854  -19.7880   15.7172 C.ar    1  UNL1        0.0411
     34 O          22.4470  -17.5560   16.0087 O.3     1  UNL1       -0.5055
     35 H          22.6571  -16.7147   15.6538 H       1  UNL1        0.2922
     36 C          18.7424  -23.6561   17.5675 C.3     1  UNL1        0.0484
     37 C          19.4563  -24.6119   18.4882 C.ar    1  UNL1       -0.0204
     38 C          20.6576  -25.1764   18.1020 C.ar    1  UNL1       -0.0042
     39 C          21.3149  -26.0495   18.9486 C.ar    1  UNL1       -0.0003
     40 C          20.7657  -26.3662   20.1770 C.ar    1  UNL1       -0.0000
     41 C          19.5618  -25.8058   20.5610 C.ar    1  UNL1       -0.0003
     42 C          18.9071  -24.9287   19.7167 C.ar    1  UNL1       -0.0042
@<TRIPOS>BOND
     1    21    22    1
     2    22    19    1
     3    19    20    1
     4    19    18    1
     5    18     5    1
     6     5     4    1
     7     5     6    1
     8     4     1    1
     9     1    23    1
    10     1     2    1
    11    23    36    1
    12    23    24    1
    13    36    37    1
    14    37    42   ar
    15    37    38   ar
    16    38    39   ar
    17    39    40   ar
    18    40    41   ar
    19    41    42   ar
    20    24    25   am
    21    25    26    2
    22    25    28    1
    23    28    33   ar
    24    28    29   ar
    25    29    30   ar
    26    30    31   ar
    27    31    32   ar
    28    32    33   ar
    29    32    34    1
    30     6     7    2
    31     6     8    2
    32     6     9    1
    33     9    14   ar
    34     9    10   ar
    35    10    11   ar
    36    11    12   ar
    37    12    17   ar
    38    12    13   ar
    39    13    14   ar
    40    13    15   ar
    41    15    16   ar
    42    16    17   ar
    43    24    27    1
    44    34    35    1
    45     2     3    1
#	Name:			ZINC16217093
#	Creating user name:	trannguyen
#	Creation time:		Wed Dec  7 14:36:19 2022


#	Modifying user name:	trannguyen
#	Modification time:	Wed Dec  7 14:36:19 2022

@<TRIPOS>MOLECULE
ZINC16217093
 37 40 0 0 0
SMALL
GASTEIGER

@<TRIPOS>ATOM
      1 N          14.6998  -26.1579   14.8022 N.ar    1  UNL1       -0.2904
      2 C          13.4376  -25.7842   15.2026 C.ar    1  UNL1        0.1682
      3 N          13.3517  -24.4837   15.0398 N.ar    1  UNL1       -0.1282
      4 N          14.4605  -24.0243   14.5807 N.ar    1  UNL1       -0.1221
      5 C          15.3197  -25.0022   14.4126 C.ar    1  UNL1        0.1936
      6 C          12.3780  -26.6772   15.7127 C.ar    1  UNL1        0.0543
      7 C          12.1424  -26.9972   17.0111 C.ar    1  UNL1        0.0755
      8 N          11.0806  -27.8514   17.0895 N.ar    1  UNL1       -0.3519
      9 C          10.5818  -28.1076   15.8304 C.ar    1  UNL1        0.0567
     10 C          11.3662  -27.3883   14.9128 C.ar    1  UNL1        0.0200
     11 C          11.0863  -27.4591   13.5495 C.ar    1  UNL1        0.0016
     12 C          10.0395  -28.2377   13.1079 C.ar    1  UNL1        0.0001
     13 C           9.2644  -28.9487   14.0130 C.ar    1  UNL1        0.0015
     14 C           9.5287  -28.8877   15.3638 C.ar    1  UNL1        0.0170
     15 H          10.7226  -28.2299   17.9249 H       1  UNL1        0.1660
     16 C          15.2621  -27.5106   14.7944 C.3     1  UNL1        0.1095
     17 C          15.7970  -27.8485   16.1874 C.3     1  UNL1        0.0246
     18 C          17.3247  -27.7640   16.1816 C.3     1  UNL1        0.0020
     19 C          17.7957  -26.9611   17.3959 C.3     1  UNL1        0.0001
     20 C          17.0171  -24.6074   17.7059 C.3     1  UNL1        0.0000
     21 C          16.6509  -26.0802   17.9000 C.3     1  UNL1        0.0000
     22 S          16.9648  -24.8543   13.7991 S.3     1  UNL1       -0.0673
     23 C          16.9204  -23.1512   13.1880 C.3     1  UNL1        0.1340
     24 C          18.2488  -22.8059   12.5657 C.2     1  UNL1        0.1844
     25 O          18.4355  -23.0068   11.3841 O.2     1  UNL1       -0.2904
     26 C          19.3173  -22.2262   13.3898 C.ar    1  UNL1        0.0368
     27 C          19.8505  -20.9723   13.0673 C.ar    1  UNL1        0.0017
     28 C          20.8482  -20.4277   13.8444 C.ar    1  UNL1       -0.0153
     29 C          21.3368  -21.1238   14.9426 C.ar    1  UNL1       -0.0774
     30 C          20.8148  -22.3773   15.2681 C.ar    1  UNL1        0.0348
     31 C          19.8094  -22.9283   14.4966 C.ar    1  UNL1        0.0163
     32 O          22.3246  -20.5843   15.7011 O.co2   1  UNL1       -0.8721
     33 N          21.3108  -23.0766   16.3767 N.am    1  UNL1       -0.2849
     34 C          20.6599  -23.0197   17.5556 C.2     1  UNL1        0.2266
     35 O          19.6941  -22.2967   17.6809 O.2     1  UNL1       -0.2748
     36 C          21.1323  -23.8544   18.7180 C.3     1  UNL1        0.0949
     37 H          22.1346  -23.6094   16.2944 H       1  UNL1        0.1548
@<TRIPOS>UNITY_ATOM_ATTR
32 1
charge -1
@<TRIPOS>BOND
     1    20    21    1
     2    21    19    1
     3    19    18    1
     4    18    17    1
     5    17    16    1
     6    16     1    1
     7     1     5   ar
     8     1     2   ar
     9     2     3   ar
    10     2     6    1
    11     3     4   ar
    12     4     5   ar
    13     5    22    1
    14    22    23    1
    15    23    24    1
    16    24    25    2
    17    24    26    1
    18    26    31   ar
    19    26    27   ar
    20    27    28   ar
    21    28    29   ar
    22    29    30   ar
    23    29    32    1
    24    30    31   ar
    25    30    33    1
    26    33    34   am
    27    34    35    2
    28    34    36    1
    29     6    10   ar
    30     6     7   ar
    31     7     8   ar
    32     8     9   ar
    33     9    14   ar
    34     9    10   ar
    35    10    11   ar
    36    11    12   ar
    37    12    13   ar
    38    13    14   ar
    39    33    37    1
    40     8    15    1
#	Name:			ZINC16219248
#	Creating user name:	trannguyen
#	Creation time:		Wed Dec  7 14:36:19 2022


#	Modifying user name:	trannguyen
#	Modification time:	Wed Dec  7 14:36:19 2022

@<TRIPOS>MOLECULE
ZINC16219248
 36 37 0 0 0
SMALL
GASTEIGER

@<TRIPOS>ATOM
      1 N          19.5437  -23.1648   16.8897 N.pl3   1  UNL1       -0.2627
      2 H          19.7370  -23.9507   16.3293 H       1  UNL1        0.1700
      3 C          20.9918  -21.8150   15.5092 C.ar    1  UNL1        0.1383
      4 C          21.5395  -20.5869   15.1938 C.ar    1  UNL1        0.0453
      5 C          21.2127  -19.4701   15.9406 C.ar    1  UNL1        0.1443
      6 C          20.3325  -19.5774   17.0020 C.ar    1  UNL1        0.0255
      7 C          19.7773  -20.8011   17.3196 C.ar    1  UNL1        0.0189
      8 C          20.1035  -21.9253   16.5713 C.ar    1  UNL1        0.0798
      9 S          21.4149  -23.2391   14.5618 S.O2    1  UNL1        0.0646
     10 O          22.3722  -22.8173   13.6001 O.2     1  UNL1       -0.1527
     11 O          21.6770  -24.2818   15.4909 O.2     1  UNL1       -0.1527
     12 N          20.0618  -23.6857   13.7182 N.3     1  UNL1       -0.1555
     13 C          17.9307  -22.7406   12.9785 C.3     1  UNL1        0.0206
     14 C          19.4466  -22.7513   12.7722 C.3     1  UNL1        0.0958
     15 C          19.4798  -25.0153   13.9178 C.3     1  UNL1        0.0958
     16 C          19.9342  -25.9451   12.7909 C.3     1  UNL1        0.0206
     17 N          21.8067  -18.1568   15.6036 N.pl3   1  UNL1        0.0577
     18 O          22.1068  -17.9019   14.4510 O.2     1  UNL1       -0.1261
     19 O          21.9952  -17.3311   16.4789 O.2     1  UNL1       -0.1261
     20 N          18.7071  -23.2894   18.0066 N.am    1  UNL1       -0.2476
     21 H          18.7265  -22.6059   18.7149 H       1  UNL1        0.1717
     22 C          17.8757  -24.3449   18.1113 C.2     1  UNL1        0.1510
     23 S          16.9917  -24.5983   19.5554 S.2     1  UNL1       -0.0171
     24 N          17.7444  -25.2042   17.0813 N.am    1  UNL1       -0.2948
     25 H          18.5352  -25.6700   16.7250 H       1  UNL1        0.1539
     26 C          16.4895  -25.4333   16.5208 C.ar    1  UNL1        0.0496
     27 C          15.9332  -24.4945   15.6570 C.ar    1  UNL1        0.0149
     28 C          14.6964  -24.7202   15.0970 C.ar    1  UNL1        0.0077
     29 C          13.9939  -25.8891   15.4055 C.ar    1  UNL1        0.0757
     30 C          14.5535  -26.8275   16.2782 C.ar    1  UNL1        0.0077
     31 C          15.7930  -26.5976   16.8304 C.ar    1  UNL1        0.0149
     32 C          12.6665  -26.1320   14.8115 C.2     1  UNL1        0.3412
     33 O          11.8314  -25.2493   14.8089 O.2     1  UNL1       -0.2449
     34 O          12.3794  -27.3328   14.2717 O.3     1  UNL1       -0.4454
     35 C          11.0658  -27.8844   14.5519 C.3     1  UNL1        0.2089
     36 C          10.2262  -27.8773   13.2729 C.3     1  UNL1        0.0513
@<TRIPOS>BOND
     1    13    14    1
     2    14    12    1
     3    12    15    1
     4    12     9    1
     5    15    16    1
     6     9    10    2
     7     9    11    2
     8     9     3    1
     9     3     8   ar
    10     3     4   ar
    11     4     5   ar
    12     5     6   ar
    13     5    17    1
    14     6     7   ar
    15     7     8   ar
    16     8     1    1
    17     1    20    1
    18    20    22    1
    19    22    23    2
    20    22    24    1
    21    24    26    1
    22    26    31   ar
    23    26    27   ar
    24    27    28   ar
    25    28    29   ar
    26    29    30   ar
    27    29    32    1
    28    30    31   ar
    29    32    33    2
    30    32    34    1
    31    34    35    1
    32    35    36    1
    33    17    18    2
    34    17    19    2
    35     1     2    1
    36    20    21    1
    37    24    25    1
#	Name:			ZINC16225448
#	Creating user name:	trannguyen
#	Creation time:		Wed Dec  7 14:36:20 2022


#	Modifying user name:	trannguyen
#	Modification time:	Wed Dec  7 14:36:20 2022

@<TRIPOS>MOLECULE
ZINC16225448
 35 37 0 0 0
SMALL
GASTEIGER

@<TRIPOS>ATOM
      1 C          19.8902  -24.5135   14.5852 C.3     1  UNL1        0.0809
      2 C          20.3997  -23.0996   14.4724 C.ar    1  UNL1        0.0946
      3 C          19.9899  -22.2763   13.4170 C.ar    1  UNL1        0.2601
      4 O          19.2132  -22.6909   12.5714 O.2     1  UNL1       -0.2673
      5 N          20.4683  -21.0161   13.3510 N.ar    1  UNL1       -0.3015
      6 C          21.3340  -20.5639   14.3002 C.ar    1  UNL1        0.1734
      7 N          21.7226  -21.3351   15.2955 N.ar    1  UNL1       -0.1887
      8 C          21.2817  -22.5908   15.4110 C.ar    1  UNL1        0.2244
      9 O          21.6960  -23.3633   16.4421 O.3     1  UNL1       -0.4920
     10 H          20.1910  -20.4228   12.6159 H       1  UNL1        0.1708
     11 H          21.3858  -24.2439   16.5218 H       1  UNL1        0.2937
     12 S          21.9522  -18.9175   14.1912 S.3     1  UNL1       -0.0726
     13 C          21.7548  -18.3931   15.9123 C.3     1  UNL1        0.0910
     14 C          20.2903  -18.3752   16.2671 C.2     1  UNL1       -0.0140
     15 C          19.8286  -19.1886   17.1844 C.2     1  UNL1       -0.0040
     16 C          20.7648  -25.4292   13.7681 C.ar    1  UNL1        0.0443
     17 C          20.2239  -26.4767   13.0865 C.ar    1  UNL1        0.0003
     18 N          21.0447  -27.2868   12.3494 N.ar    1  UNL1       -0.2392
     19 C          22.3855  -27.0513   12.3092 C.ar    1  UNL1        0.1693
     20 N          22.9208  -26.0449   12.9686 N.ar    1  UNL1       -0.3017
     21 C          22.1579  -25.2158   13.6971 C.ar    1  UNL1        0.2559
     22 O          22.6671  -24.2794   14.2957 O.2     1  UNL1       -0.2675
     23 O          18.8928  -26.7068   13.1288 O.co2   1  UNL1       -0.8598
     24 H          23.8936  -25.8989   12.9265 H       1  UNL1        0.1708
     25 S          23.4223  -28.1120   11.3581 S.3     1  UNL1       -0.0727
     26 C          24.4628  -26.8800   10.5360 C.3     1  UNL1        0.0910
     27 C          25.2003  -27.5276    9.3926 C.2     1  UNL1       -0.0140
     28 C          24.5317  -28.0644    8.4020 C.2     1  UNL1       -0.0040
     29 C          20.0109  -26.1671   20.1209 C.3     1  UNL1        0.0310
     30 C          19.9790  -25.7361   18.6772 C.ar    1  UNL1       -0.0219
     31 C          20.7554  -26.3947   17.7420 C.ar    1  UNL1       -0.0046
     32 C          20.7265  -25.9991   16.4178 C.ar    1  UNL1       -0.0040
     33 C          19.9213  -24.9450   16.0288 C.ar    1  UNL1       -0.0139
     34 C          19.1490  -24.2830   16.9648 C.ar    1  UNL1       -0.0040
     35 C          19.1740  -24.6821   18.2882 C.ar    1  UNL1       -0.0046
@<TRIPOS>UNITY_ATOM_ATTR
23 1
charge -1
@<TRIPOS>BOND
     1    29    30    1
     2    30    35   ar
     3    30    31   ar
     4    31    32   ar
     5    32    33   ar
     6    33    34   ar
     7    33     1    1
     8    34    35   ar
     9     1     2    1
    10     1    16    1
    11    16    17   ar
    12    16    21   ar
    13    17    23    1
    14    17    18   ar
    15    18    19   ar
    16    19    20   ar
    17    19    25    1
    18    20    21   ar
    19    21    22    2
    20    25    26    1
    21    26    27    1
    22    27    28    2
    23     2     8   ar
    24     2     3   ar
    25     3     4    2
    26     3     5   ar
    27     5     6   ar
    28     6     7   ar
    29     6    12    1
    30     7     8   ar
    31     8     9    1
    32    12    13    1
    33    13    14    1
    34    14    15    2
    35    20    24    1
    36     5    10    1
    37     9    11    1
#	Name:			ZINC16333521
#	Creating user name:	trannguyen
#	Creation time:		Wed Dec  7 14:36:19 2022


#	Modifying user name:	trannguyen
#	Modification time:	Wed Dec  7 14:36:19 2022

@<TRIPOS>MOLECULE
ZINC16333521
 32 34 0 0 0
SMALL
GASTEIGER

@<TRIPOS>ATOM
      1 C          15.4171  -27.5032   15.1989 C.3     1  UNL1        0.0575
      2 C          14.6104  -26.2048   15.1344 C.3     1  UNL1        0.2447
      3 C          15.5046  -25.0800   14.6802 C.2     1  UNL1        0.2664
      4 O          15.0613  -23.9555   14.5802 O.2     1  UNL1       -0.2709
      5 N          16.7969  -25.3236   14.3853 N.am    1  UNL1       -0.2810
      6 H          17.1375  -26.2473   14.3913 H       1  UNL1        0.1550
      7 C          17.6542  -24.2641   14.0707 C.ar    1  UNL1        0.0504
      8 C          17.6208  -23.7033   12.7883 C.ar    1  UNL1        0.0147
      9 C          18.4423  -22.6730   12.4550 C.ar    1  UNL1        0.0013
     10 C          19.3410  -22.1575   13.4054 C.ar    1  UNL1        0.0001
     11 C          20.2023  -21.0932   13.0886 C.ar    1  UNL1        0.0000
     12 C          21.0611  -20.6175   14.0312 C.ar    1  UNL1        0.0000
     13 C          21.1047  -21.1735   15.3085 C.ar    1  UNL1        0.0000
     14 C          20.2822  -22.2014   15.6531 C.ar    1  UNL1        0.0000
     15 C          19.3816  -22.7194   14.7060 C.ar    1  UNL1        0.0012
     16 C          18.5220  -23.7831   15.0256 C.ar    1  UNL1        0.0147
     17 O          13.5148  -26.3619   14.1946 O.3     1  UNL1       -0.4397
     18 C          12.2715  -26.1292   14.6598 C.2     1  UNL1        0.3420
     19 O          11.9659  -25.0190   15.0485 O.2     1  UNL1       -0.2449
     20 C          11.2834  -27.2203   14.6975 C.ar    1  UNL1        0.0813
     21 C          10.5389  -27.5352   13.5567 C.ar    1  UNL1        0.0069
     22 C           9.6195  -28.5596   13.5975 C.ar    1  UNL1        0.0002
     23 C           9.4193  -29.2759   14.7679 C.ar    1  UNL1        0.0005
     24 C          10.1415  -28.9753   15.9034 C.ar    1  UNL1        0.0064
     25 C          11.0781  -27.9479   15.8817 C.ar    1  UNL1        0.0319
     26 S          12.0020  -27.5602   17.3311 S.3     1  UNL1       -0.1037
     27 C          10.7225  -27.7910   18.5903 C.3     1  UNL1        0.1466
     28 C          10.8286  -26.6965   19.6208 C.2     1  UNL1        0.2307
     29 O          11.7622  -26.6807   20.3947 O.2     1  UNL1       -0.2744
     30 N           9.8861  -25.7351   19.6824 N.am    1  UNL1       -0.3281
     31 H           9.1282  -25.7479   19.0542 H       1  UNL1        0.1450
     32 H           9.9555  -25.0201   20.3556 H       1  UNL1        0.1450
@<TRIPOS>BOND
     1     1     2    1
     2     2     3    1
     3     2    17    1
     4     3     4    2
     5     3     5   am
     6     5     7    1
     7     7    16   ar
     8     7     8   ar
     9     8     9   ar
    10     9    10   ar
    11    10    15   ar
    12    10    11   ar
    13    11    12   ar
    14    12    13   ar
    15    13    14   ar
    16    14    15   ar
    17    15    16   ar
    18    17    18    1
    19    18    19    2
    20    18    20    1
    21    20    25   ar
    22    20    21   ar
    23    21    22   ar
    24    22    23   ar
    25    23    24   ar
    26    24    25   ar
    27    25    26    1
    28    26    27    1
    29    27    28    1
    30    28    29    2
    31    28    30   am
    32     5     6    1
    33    30    31    1
    34    30    32    1
#	Name:			ZINC16346345
#	Creating user name:	trannguyen
#	Creation time:		Wed Dec  7 14:36:19 2022


#	Modifying user name:	trannguyen
#	Modification time:	Wed Dec  7 14:36:19 2022

@<TRIPOS>MOLECULE
ZINC16346345
 38 40 0 0 0
SMALL
GASTEIGER

@<TRIPOS>ATOM
      1 C          19.8986  -26.9927   15.9984 C.2     1  UNL1        0.1514
      2 S          19.9647  -28.3588   14.9687 S.2     1  UNL1       -0.0171
      3 N          20.9660  -26.1769   16.1049 N.am    1  UNL1       -0.2897
      4 H          21.8055  -26.5129   16.4942 H       1  UNL1        0.1544
      5 C          20.8744  -23.6957   16.4290 C.ar    1  UNL1        0.0920
      6 C          20.7812  -22.4898   15.7516 C.ar    1  UNL1       -0.0016
      7 C          20.7034  -22.5324   14.3853 C.ar    1  UNL1        0.1025
      8 S          20.7688  -24.2806   14.0426 S.2     1  UNL1       -0.0659
      9 C          20.8824  -24.8708   15.6683 C.ar    1  UNL1        0.0861
     10 C          20.7657  -21.1779   16.4931 C.3     1  UNL1        0.0320
     11 C          20.9614  -23.7388   17.8927 C.2     1  UNL1        0.3426
     12 O          22.0215  -23.9931   18.4317 O.2     1  UNL1       -0.2448
     13 O          19.8659  -23.4965   18.6406 O.3     1  UNL1       -0.4454
     14 C          17.8719  -24.4263   19.6844 C.3     1  UNL1        0.0513
     15 C          19.3779  -24.5858   19.4673 C.3     1  UNL1        0.2089
     16 C          20.5994  -21.4203   13.4416 C.2     1  UNL1        0.3470
     17 O          19.5680  -21.2435   12.8212 O.2     1  UNL1       -0.2443
     18 O          21.6474  -20.5903   13.2590 O.3     1  UNL1       -0.4451
     19 C          21.3512  -19.2088   13.0452 C.3     1  UNL1        0.2089
     20 C          21.8760  -18.3864   14.2239 C.3     1  UNL1        0.0513
     21 N          18.7791  -26.7331   16.7025 N.am    1  UNL1       -0.2455
     22 H          18.8300  -26.6008   17.6768 H       1  UNL1        0.1718
     23 N          17.5431  -26.6516   16.0481 N.am    1  UNL1       -0.2317
     24 C          16.9696  -25.4500   15.8383 C.2     1  UNL1        0.2781
     25 O          17.5236  -24.4394   16.2160 O.2     1  UNL1       -0.2697
     26 H          17.0934  -27.4719   15.7414 H       1  UNL1        0.1729
     27 C          15.6401  -25.3623   15.1343 C.3     1  UNL1        0.2426
     28 C          15.7437  -24.3756   13.9697 C.3     1  UNL1        0.0575
     29 O          15.2792  -26.6518   14.6354 O.3     1  UNL1       -0.4698
     30 C          13.9623  -26.9872   14.6864 C.ar    1  UNL1        0.1423
     31 C          13.2622  -26.8677   15.8777 C.ar    1  UNL1        0.0402
     32 C          11.9237  -27.2081   15.9318 C.ar    1  UNL1        0.0433
     33 C          11.2778  -27.6693   14.7965 C.ar    1  UNL1        0.1766
     34 C          11.9785  -27.7896   13.5991 C.ar    1  UNL1        0.1794
     35 C          13.3201  -27.4480   13.5473 C.ar    1  UNL1        0.0770
     36 O          11.1275  -28.2592   12.6406 O.3     1  UNL1       -0.4345
     37 C          10.0080  -28.8127   13.3580 C.3     1  UNL1        0.4294
     38 O           9.9868  -28.0642   14.5878 O.3     1  UNL1       -0.4346
@<TRIPOS>BOND
     1    14    15    1
     2    15    13    1
     3    13    11    1
     4    11    12    2
     5    11     5    1
     6     5     9   ar
     7     5     6   ar
     8     6     7   ar
     9     6    10    1
    10     7     8   ar
    11     7    16    1
    12     8     9   ar
    13     9     3    1
    14     3     1    1
    15     1     2    2
    16     1    21    1
    17    21    23    1
    18    23    24   am
    19    24    25    2
    20    24    27    1
    21    27    28    1
    22    27    29    1
    23    29    30    1
    24    30    35   ar
    25    30    31   ar
    26    31    32   ar
    27    32    33   ar
    28    33    38    1
    29    33    34   ar
    30    34    35   ar
    31    34    36    1
    32    36    37    1
    33    37    38    1
    34    16    17    2
    35    16    18    1
    36    18    19    1
    37    19    20    1
    38     3     4    1
    39    21    22    1
    40    23    26    1
#	Name:			ZINC16346348
#	Creating user name:	trannguyen
#	Creation time:		Wed Dec  7 14:36:19 2022


#	Modifying user name:	trannguyen
#	Modification time:	Wed Dec  7 14:36:19 2022

@<TRIPOS>MOLECULE
ZINC16346348
 38 40 0 0 0
SMALL
GASTEIGER

@<TRIPOS>ATOM
      1 C          18.8242  -25.1873   18.3414 C.2     1  UNL1        0.1514
      2 S          18.0918  -24.6437   19.7902 S.2     1  UNL1       -0.0171
      3 N          20.0666  -24.7764   18.0190 N.am    1  UNL1       -0.2897
      4 H          20.8408  -25.3546   18.2076 H       1  UNL1        0.1544
      5 C          20.2591  -23.2269   16.0616 C.ar    1  UNL1        0.0920
      6 C          20.4705  -21.9028   15.7097 C.ar    1  UNL1       -0.0016
      7 C          20.6592  -20.9986   16.7205 C.ar    1  UNL1        0.1025
      8 S          20.5320  -22.0115   18.1821 S.2     1  UNL1       -0.0659
      9 C          20.2536  -23.5454   17.4246 C.ar    1  UNL1        0.0861
     10 C          20.4924  -21.4736   14.2653 C.3     1  UNL1        0.0320
     11 C          20.0491  -24.2589   15.0404 C.2     1  UNL1        0.3426
     12 O          20.9865  -24.9279   14.6501 O.2     1  UNL1       -0.2448
     13 O          18.8163  -24.4658   14.5345 O.3     1  UNL1       -0.4454
     14 C          18.6407  -23.8690   12.1800 C.3     1  UNL1        0.0513
     15 C          18.7381  -25.0127   13.1917 C.3     1  UNL1        0.2089
     16 C          20.8984  -19.5594   16.6252 C.2     1  UNL1        0.3470
     17 O          20.0010  -18.7759   16.8722 O.2     1  UNL1       -0.2443
     18 O          22.1145  -19.1002   16.2632 O.3     1  UNL1       -0.4451
     19 C          22.1490  -17.9203   15.4578 C.3     1  UNL1        0.2089
     20 C          21.9123  -18.2954   13.9935 C.3     1  UNL1        0.0513
     21 N          18.1583  -26.0262   17.5233 N.am    1  UNL1       -0.2455
     22 H          18.4084  -26.9776   17.4844 H       1  UNL1        0.1718
     23 N          17.1102  -25.5442   16.7282 N.am    1  UNL1       -0.2317
     24 C          16.3917  -26.3967   15.9711 C.2     1  UNL1        0.2781
     25 O          16.6524  -27.5813   15.9779 O.2     1  UNL1       -0.2697
     26 H          16.8986  -24.5827   16.7226 H       1  UNL1        0.1729
     27 C          15.2643  -25.8784   15.1159 C.3     1  UNL1        0.2426
     28 C          15.3843  -24.3591   14.9801 C.3     1  UNL1        0.0575
     29 O          14.0142  -26.2049   15.7264 O.3     1  UNL1       -0.4698
     30 C          13.1450  -26.9501   14.9930 C.ar    1  UNL1        0.1423
     31 C          13.5156  -27.4132   13.7392 C.ar    1  UNL1        0.0402
     32 C          12.6336  -28.1710   12.9919 C.ar    1  UNL1        0.0433
     33 C          11.3773  -28.4699   13.4930 C.ar    1  UNL1        0.1766
     34 C          11.0028  -28.0060   14.7515 C.ar    1  UNL1        0.1794
     35 C          11.8884  -27.2466   15.4986 C.ar    1  UNL1        0.0770
     36 O           9.7342  -28.4352   15.0153 O.3     1  UNL1       -0.4345
     37 C           9.1836  -28.8112   13.7374 C.3     1  UNL1        0.4294
     38 O          10.3400  -29.1857   12.9658 O.3     1  UNL1       -0.4346
@<TRIPOS>BOND
     1    14    15    1
     2    15    13    1
     3    13    11    1
     4    11    12    2
     5    11     5    1
     6     5     9   ar
     7     5     6   ar
     8     6     7   ar
     9     6    10    1
    10     7     8   ar
    11     7    16    1
    12     8     9   ar
    13     9     3    1
    14     3     1    1
    15     1     2    2
    16     1    21    1
    17    21    23    1
    18    23    24   am
    19    24    25    2
    20    24    27    1
    21    27    28    1
    22    27    29    1
    23    29    30    1
    24    30    35   ar
    25    30    31   ar
    26    31    32   ar
    27    32    33   ar
    28    33    38    1
    29    33    34   ar
    30    34    35   ar
    31    34    36    1
    32    36    37    1
    33    37    38    1
    34    16    17    2
    35    16    18    1
    36    18    19    1
    37    19    20    1
    38     3     4    1
    39    21    22    1
    40    23    26    1
#	Name:			ZINC16665507
#	Creating user name:	trannguyen
#	Creation time:		Wed Dec  7 14:36:19 2022


#	Modifying user name:	trannguyen
#	Modification time:	Wed Dec  7 14:36:19 2022

@<TRIPOS>MOLECULE
ZINC16665507
 38 42 0 0 0
SMALL
GASTEIGER

@<TRIPOS>ATOM
      1 C          19.4767  -26.6168   17.9771 C.3     1  UNL1        0.1528
      2 C          20.6986  -23.2425   18.0779 C.ar    1  UNL1        0.1897
      3 N          19.7837  -24.1599   18.4393 N.ar    1  UNL1       -0.1936
      4 C          20.1679  -25.2813   17.8785 C.ar    1  UNL1        0.2478
      5 O          21.2926  -25.0148   17.2076 O.2     1  UNL1       -0.3364
      6 N          21.5760  -23.8417   17.3298 N.ar    1  UNL1       -0.0601
      7 C          20.7047  -21.7871   18.4685 C.3     1  UNL1        0.1543
      8 N          21.6608  -21.0077   16.3244 N.am    1  UNL1       -0.2812
      9 C          20.6627  -20.9337   17.2271 C.2     1  UNL1        0.2340
     10 O          19.7308  -20.1801   17.0405 O.2     1  UNL1       -0.2743
     11 H          22.3815  -21.6683   16.4404 H       1  UNL1        0.1550
     12 C          21.2797  -20.6076   13.9673 C.ar    1  UNL1        0.1520
     13 C          21.2935  -19.7495   12.8797 C.ar    1  UNL1        0.0382
     14 C          21.6967  -18.4368   13.0396 C.ar    1  UNL1        0.0032
     15 C          22.0869  -17.9762   14.2836 C.ar    1  UNL1        0.0015
     16 C          22.0705  -18.8242   15.3747 C.ar    1  UNL1        0.0178
     17 C          21.6727  -20.1443   15.2208 C.ar    1  UNL1        0.0848
     18 C          19.5001  -22.1233   13.5303 C.3     1  UNL1        0.2525
     19 O          20.8830  -21.8989   13.8117 O.3     1  UNL1       -0.4702
     20 S          17.7045  -26.4024   17.6780 S.3     1  UNL1       -0.0656
     21 C          17.7277  -26.0311   15.9556 C.ar    1  UNL1        0.1916
     22 N          16.9194  -25.0917   15.5002 N.ar    1  UNL1       -0.2211
     23 C          16.9077  -24.7804   14.1958 C.ar    1  UNL1        0.0861
     24 C          16.0626  -23.7892   13.6783 C.ar    1  UNL1        0.0193
     25 C          16.0893  -23.5113   12.3438 C.ar    1  UNL1        0.0015
     26 C          16.9436  -24.1971   11.4854 C.ar    1  UNL1        0.0002
     27 C          17.7789  -25.1675   11.9563 C.ar    1  UNL1        0.0043
     28 C          17.7763  -25.4770   13.3205 C.ar    1  UNL1        0.0494
     29 C          18.6216  -26.4754   13.8659 C.ar    1  UNL1        0.1357
     30 N          18.5547  -26.7131   15.1676 N.ar    1  UNL1       -0.2061
     31 N          19.4879  -27.1857   13.0610 N.pl3   1  UNL1       -0.2978
     32 H          19.1617  -27.9632   12.5526 H       1  UNL1        0.1536
     33 C          20.8287  -26.8018   12.9672 C.ar    1  UNL1        0.0494
     34 C          21.7134  -27.5456   12.1967 C.ar    1  UNL1        0.0146
     35 C          23.0374  -27.1634   12.1058 C.ar    1  UNL1        0.0013
     36 C          23.4827  -26.0417   12.7810 C.ar    1  UNL1        0.0001
     37 C          22.6057  -25.3020   13.5530 C.ar    1  UNL1        0.0013
     38 C          21.2792  -25.6754   13.6437 C.ar    1  UNL1        0.0146
@<TRIPOS>BOND
     1    18    19    1
     2    19    12    1
     3    12    17   ar
     4    12    13   ar
     5    13    14   ar
     6    14    15   ar
     7    15    16   ar
     8    16    17   ar
     9    17     8    1
    10     8     9   am
    11     9    10    2
    12     9     7    1
    13     7     2    1
    14     2     6   ar
    15     2     3   ar
    16     3     4   ar
    17     4     5   ar
    18     4     1    1
    19     5     6   ar
    20     1    20    1
    21    20    21    1
    22    21    30   ar
    23    21    22   ar
    24    22    23   ar
    25    23    28   ar
    26    23    24   ar
    27    24    25   ar
    28    25    26   ar
    29    26    27   ar
    30    27    28   ar
    31    28    29   ar
    32    29    30   ar
    33    29    31    1
    34    31    33    1
    35    33    38   ar
    36    33    34   ar
    37    34    35   ar
    38    35    36   ar
    39    36    37   ar
    40    37    38   ar
    41     8    11    1
    42    31    32    1
#	Name:			ZINC16673672
#	Creating user name:	trannguyen
#	Creation time:		Wed Dec  7 14:36:19 2022


#	Modifying user name:	trannguyen
#	Modification time:	Wed Dec  7 14:36:19 2022

@<TRIPOS>MOLECULE
ZINC16673672
 38 41 0 0 0
SMALL
GASTEIGER

@<TRIPOS>ATOM
      1 C          19.1715  -23.3302   12.0692 C.3     1  UNL1        0.2733
      2 C          20.3417  -23.4340   13.0131 C.ar    1  UNL1        0.1889
      3 N          20.8755  -24.6148   13.2738 N.ar    1  UNL1       -0.1951
      4 C          21.9120  -24.7100   14.1033 C.ar    1  UNL1        0.2173
      5 N          22.4037  -23.6174   14.6774 N.ar    1  UNL1       -0.1810
      6 C          21.8613  -22.4329   14.4168 C.ar    1  UNL1        0.2243
      7 N          20.8279  -22.3451   13.5821 N.ar    1  UNL1       -0.1947
      8 N          22.4718  -25.9426   14.3708 N.pl3   1  UNL1       -0.3273
      9 H          22.1069  -26.7519   13.9450 H       1  UNL1        0.1452
     10 H          23.2361  -26.0128   14.9874 H       1  UNL1        0.1452
     11 N          22.3691  -21.2943   15.0107 N.pl3   1  UNL1       -0.2801
     12 H          23.3331  -21.1009   14.9602 H       1  UNL1        0.1552
     13 C          21.5127  -20.4145   15.6848 C.ar    1  UNL1        0.0849
     14 C          20.6920  -20.8840   16.7001 C.ar    1  UNL1        0.0178
     15 C          19.8509  -20.0132   17.3666 C.ar    1  UNL1        0.0015
     16 C          19.8175  -18.6756   17.0176 C.ar    1  UNL1        0.0032
     17 C          20.6292  -18.2014   16.0037 C.ar    1  UNL1        0.0382
     18 C          21.4785  -19.0669   15.3338 C.ar    1  UNL1        0.1520
     19 O          22.2766  -18.6020   14.3356 O.3     1  UNL1       -0.4702
     20 C          21.6776  -18.4395   13.0485 C.3     1  UNL1        0.2525
     21 O          17.9603  -23.7485   12.7519 O.3     1  UNL1       -0.4395
     22 C          17.3088  -24.8065   12.2439 C.2     1  UNL1        0.3289
     23 O          17.7150  -25.3406   11.2392 O.2     1  UNL1       -0.2491
     24 C          16.0708  -25.3280   12.9268 C.3     1  UNL1        0.1715
     25 S          15.8294  -24.4486   14.4950 S.3     1  UNL1       -0.0994
     26 C          14.8923  -27.3987   15.7187 C.3     1  UNL1        0.0545
     27 C          16.1624  -26.7131   16.1523 C.ar    1  UNL1        0.0861
     28 C          16.6267  -25.4737   15.6858 C.ar    1  UNL1        0.0545
     29 C          17.7992  -25.2048   16.3150 C.ar    1  UNL1        0.0677
     30 N          18.0631  -26.2463   17.1527 N.ar    1  UNL1       -0.2335
     31 N          17.0202  -27.1729   17.0272 N.ar    1  UNL1       -0.1693
     32 C          18.6528  -23.9779   16.1224 C.3     1  UNL1        0.0527
     33 C          19.1771  -26.3664   17.9948 C.ar    1  UNL1        0.0824
     34 C          19.1285  -25.8641   19.2883 C.ar    1  UNL1        0.0191
     35 C          20.2260  -25.9891   20.1176 C.ar    1  UNL1        0.0015
     36 C          21.3760  -26.6035   19.6571 C.ar    1  UNL1        0.0001
     37 C          21.4293  -27.0996   18.3675 C.ar    1  UNL1        0.0015
     38 C          20.3332  -26.9829   17.5353 C.ar    1  UNL1        0.0191
@<TRIPOS>BOND
     1    26    27    1
     2    27    31   ar
     3    27    28   ar
     4    28    29   ar
     5    28    25    1
     6    29    30   ar
     7    29    32    1
     8    30    31   ar
     9    30    33    1
    10    33    38   ar
    11    33    34   ar
    12    34    35   ar
    13    35    36   ar
    14    36    37   ar
    15    37    38   ar
    16    25    24    1
    17    24    22    1
    18    22    23    2
    19    22    21    1
    20    21     1    1
    21     1     2    1
    22     2     7   ar
    23     2     3   ar
    24     3     4   ar
    25     4     5   ar
    26     4     8    1
    27     5     6   ar
    28     6     7   ar
    29     6    11    1
    30    11    13    1
    31    13    18   ar
    32    13    14   ar
    33    14    15   ar
    34    15    16   ar
    35    16    17   ar
    36    17    18   ar
    37    18    19    1
    38    19    20    1
    39    11    12    1
    40     8     9    1
    41     8    10    1
#	Name:			ZINC16675728
#	Creating user name:	trannguyen
#	Creation time:		Wed Dec  7 14:36:20 2022


#	Modifying user name:	trannguyen
#	Modification time:	Wed Dec  7 14:36:20 2022

@<TRIPOS>MOLECULE
ZINC16675728
 38 41 0 0 0
SMALL
GASTEIGER

@<TRIPOS>ATOM
      1 C          18.5753  -25.0147   12.1470 C.3     1  UNL1        0.2733
      2 C          19.8204  -25.3252   12.9374 C.ar    1  UNL1        0.1889
      3 N          20.3264  -26.5460   12.9175 N.ar    1  UNL1       -0.1951
      4 C          21.4285  -26.8229   13.6106 C.ar    1  UNL1        0.2173
      5 N          22.0142  -25.8727   14.3312 N.ar    1  UNL1       -0.1810
      6 C          21.4997  -24.6480   14.3528 C.ar    1  UNL1        0.2243
      7 N          20.3999  -24.3775   13.6529 N.ar    1  UNL1       -0.1947
      8 N          21.9591  -28.0965   13.5850 N.pl3   1  UNL1       -0.3273
      9 H          21.5245  -28.8001   13.0509 H       1  UNL1        0.1452
     10 H          22.7721  -28.3015   14.1008 H       1  UNL1        0.1452
     11 N          22.1050  -23.6568   15.0998 N.pl3   1  UNL1       -0.2801
     12 H          23.0857  -23.5702   15.1006 H       1  UNL1        0.1552
     13 C          21.3234  -22.7744   15.8566 C.ar    1  UNL1        0.0849
     14 C          20.6452  -23.2318   16.9770 C.ar    1  UNL1        0.0178
     15 C          19.8782  -22.3582   17.7244 C.ar    1  UNL1        0.0015
     16 C          19.7764  -21.0303   17.3527 C.ar    1  UNL1        0.0032
     17 C          20.4456  -20.5684   16.2345 C.ar    1  UNL1        0.0382
     18 C          21.2205  -21.4363   15.4827 C.ar    1  UNL1        0.1520
     19 O          21.8785  -20.9835   14.3821 O.3     1  UNL1       -0.4702
     20 C          21.0826  -20.6380   13.2468 C.3     1  UNL1        0.2525
     21 O          17.7020  -24.1631   12.9345 O.3     1  UNL1       -0.4395
     22 C          16.4710  -24.6293   13.1971 C.2     1  UNL1        0.3290
     23 O          15.8106  -25.1225   12.3136 O.2     1  UNL1       -0.2491
     24 C          15.9125  -24.5375   14.5938 C.3     1  UNL1        0.1742
     25 S          17.2124  -24.9305   15.7905 S.3     1  UNL1       -0.0650
     26 N          16.7612  -26.4840   18.0622 N.ar    1  UNL1       -0.2842
     27 C          15.7748  -27.3133   18.5519 C.ar    1  UNL1        0.1025
     28 C          14.7894  -27.3319   17.6383 C.ar    1  UNL1        0.1200
     29 N          15.1470  -26.5413   16.6123 N.ar    1  UNL1       -0.2192
     30 C          16.3297  -26.0247   16.8527 C.ar    1  UNL1        0.1758
     31 C          21.5427  -27.4232   18.7305 C.3     1  UNL1        0.0311
     32 C          20.3086  -26.6117   19.0299 C.ar    1  UNL1       -0.0204
     33 C          20.3748  -25.5578   19.9231 C.ar    1  UNL1       -0.0045
     34 C          19.2447  -24.8111   20.2003 C.ar    1  UNL1       -0.0031
     35 C          18.0473  -25.1118   19.5805 C.ar    1  UNL1       -0.0057
     36 C          17.9765  -26.1725   18.6880 C.ar    1  UNL1        0.0616
     37 C          19.1130  -26.9209   18.4120 C.ar    1  UNL1        0.0130
     38 C          16.8175  -24.2930   19.8781 C.3     1  UNL1        0.0326
@<TRIPOS>BOND
     1    31    32    1
     2    32    37   ar
     3    32    33   ar
     4    33    34   ar
     5    34    35   ar
     6    35    36   ar
     7    35    38    1
     8    36    37   ar
     9    36    26    1
    10    26    30   ar
    11    26    27   ar
    12    27    28   ar
    13    28    29   ar
    14    29    30   ar
    15    30    25    1
    16    25    24    1
    17    24    22    1
    18    22    23    2
    19    22    21    1
    20    21     1    1
    21     1     2    1
    22     2     7   ar
    23     2     3   ar
    24     3     4   ar
    25     4     5   ar
    26     4     8    1
    27     5     6   ar
    28     6     7   ar
    29     6    11    1
    30    11    13    1
    31    13    18   ar
    32    13    14   ar
    33    14    15   ar
    34    15    16   ar
    35    16    17   ar
    36    17    18   ar
    37    18    19    1
    38    19    20    1
    39    11    12    1
    40     8     9    1
    41     8    10    1
#	Name:			ZINC16795075
#	Creating user name:	trannguyen
#	Creation time:		Wed Dec  7 14:36:19 2022


#	Modifying user name:	trannguyen
#	Modification time:	Wed Dec  7 14:36:19 2022

@<TRIPOS>MOLECULE
ZINC16795075
 31 32 0 0 0
SMALL
GASTEIGER

@<TRIPOS>ATOM
      1 C          20.5301  -24.6298   15.9255 C.3     1  UNL1        0.2447
      2 C          20.3866  -25.6640   14.8072 C.3     1  UNL1        0.0575
      3 C          21.1012  -23.3549   15.3604 C.2     1  UNL1        0.2665
      4 O          22.2896  -23.2713   15.1326 O.2     1  UNL1       -0.2709
      5 N          20.2914  -22.3075   15.1082 N.am    1  UNL1       -0.2786
      6 H          19.3173  -22.4013   15.2157 H       1  UNL1        0.1551
      7 C          20.8359  -21.0848   14.6930 C.ar    1  UNL1        0.0850
      8 C          20.8299  -20.7416   13.3489 C.ar    1  UNL1        0.0178
      9 C          21.3623  -19.5328   12.9424 C.ar    1  UNL1        0.0015
     10 C          21.9119  -18.6682   13.8712 C.ar    1  UNL1        0.0032
     11 C          21.9266  -19.0060   15.2116 C.ar    1  UNL1        0.0384
     12 C          21.3897  -20.2134   15.6280 C.ar    1  UNL1        0.1576
     13 O          21.4038  -20.5472   16.9460 O.3     1  UNL1       -0.4224
     14 C          20.2285  -20.2510   17.7030 C.3     1  UNL1        0.5087
     15 F          19.5258  -19.2109   17.0853 F       1  UNL1       -0.1550
     16 F          19.4166  -21.3885   17.7676 F       1  UNL1       -0.1550
     17 O          21.4195  -25.1458   16.9507 O.3     1  UNL1       -0.4387
     18 C          21.2673  -24.6543   18.1974 C.2     1  UNL1        0.3571
     19 O          22.1189  -23.9282   18.6729 O.2     1  UNL1       -0.2433
     20 C          20.7368  -27.3995   19.5811 C.3     1  UNL1        0.0330
     21 C          19.8342  -26.1927   19.5883 C.ar    1  UNL1        0.0074
     22 C          18.5753  -26.0882   20.2217 C.ar    1  UNL1        0.0847
     23 C          18.1012  -24.8125   19.9749 C.ar    1  UNL1        0.0401
     24 N          19.0049  -24.1622   19.2257 N.ar    1  UNL1       -0.3514
     25 C          20.0748  -24.9957   18.9796 C.ar    1  UNL1        0.1293
     26 C          16.7895  -24.2505   20.4595 C.3     1  UNL1        0.0500
     27 H          18.9176  -23.2362   18.9029 H       1  UNL1        0.1658
     28 C          17.8977  -27.1384   21.0004 C.2     1  UNL1        0.3421
     29 O          17.1155  -27.8910   20.4537 O.2     1  UNL1       -0.2449
     30 O          18.1449  -27.2651   22.3190 O.3     1  UNL1       -0.4413
     31 C          18.0675  -28.6026   22.8788 C.3     1  UNL1        0.2560
@<TRIPOS>BOND
     1    20    21    1
     2    21    25   ar
     3    21    22   ar
     4    22    23   ar
     5    22    28    1
     6    23    24   ar
     7    23    26    1
     8    24    25   ar
     9    25    18    1
    10    18    19    2
    11    18    17    1
    12    17     1    1
    13     1     2    1
    14     1     3    1
    15     3     4    2
    16     3     5   am
    17     5     7    1
    18     7    12   ar
    19     7     8   ar
    20     8     9   ar
    21     9    10   ar
    22    10    11   ar
    23    11    12   ar
    24    12    13    1
    25    13    14    1
    26    14    15    1
    27    14    16    1
    28    28    29    2
    29    28    30    1
    30    30    31    1
    31    24    27    1
    32     5     6    1
#	Name:			ZINC16855039
#	Creating user name:	trannguyen
#	Creation time:		Wed Dec  7 14:36:20 2022


#	Modifying user name:	trannguyen
#	Modification time:	Wed Dec  7 14:36:20 2022

@<TRIPOS>MOLECULE
ZINC16855039
 32 34 0 0 0
SMALL
GASTEIGER

@<TRIPOS>ATOM
      1 C          20.4020  -24.4480   13.3866 C.ar    1  UNL1        0.1734
      2 N          21.5749  -24.1096   13.9904 N.ar    1  UNL1       -0.3015
      3 C          21.9549  -22.8161   14.0525 C.ar    1  UNL1        0.2595
      4 O          23.0042  -22.5025   14.5919 O.2     1  UNL1       -0.2673
      5 C          21.1248  -21.8405   13.4881 C.ar    1  UNL1        0.0875
      6 C          19.9401  -22.2377   12.8911 C.ar    1  UNL1        0.2237
      7 N          19.6173  -23.5334   12.8534 N.ar    1  UNL1       -0.1887
      8 O          19.1143  -21.3164   12.3424 O.3     1  UNL1       -0.4920
      9 H          22.1462  -24.8093   14.3819 H       1  UNL1        0.1708
     10 H          19.3420  -20.4079   12.3696 H       1  UNL1        0.2937
     11 S          19.9244  -26.1427   13.3163 S.3     1  UNL1       -0.0726
     12 C          18.1447  -25.9566   13.0443 C.3     1  UNL1        0.0910
     13 C          17.4295  -27.7513   17.6609 C.3     1  UNL1        0.0310
     14 C          17.0951  -26.7535   16.5822 C.ar    1  UNL1       -0.0222
     15 C          16.1399  -25.7807   16.8122 C.ar    1  UNL1       -0.0046
     16 C          15.8332  -24.8656   15.8229 C.ar    1  UNL1       -0.0049
     17 C          16.4861  -24.9191   14.6054 C.ar    1  UNL1       -0.0250
     18 C          17.4372  -25.8948   14.3735 C.ar    1  UNL1       -0.0152
     19 C          17.7436  -26.8105   15.3630 C.ar    1  UNL1       -0.0080
     20 C          16.1566  -23.9172   13.5290 C.3     1  UNL1        0.0307
     21 C          21.5103  -20.3843   13.5348 C.3     1  UNL1        0.0476
     22 C          20.5873  -19.6432   14.5042 C.3     1  UNL1        0.0629
     23 S          21.3129  -19.6656   16.1665 S.3     1  UNL1       -0.1351
     24 C          19.9541  -20.2237   17.2309 C.3     1  UNL1        0.0837
     25 C          20.0689  -21.7096   17.4545 C.ar    1  UNL1       -0.0111
     26 C          20.8749  -22.1950   18.4675 C.ar    1  UNL1       -0.0003
     27 C          20.9814  -23.5567   18.6747 C.ar    1  UNL1        0.0366
     28 C          20.2788  -24.4373   17.8651 C.ar    1  UNL1        0.1387
     29 C          19.4703  -23.9477   16.8496 C.ar    1  UNL1        0.0366
     30 C          19.3675  -22.5853   16.6462 C.ar    1  UNL1       -0.0003
     31 O          20.3822  -25.7773   18.0666 O.3     1  UNL1       -0.4714
     32 C          20.3941  -26.2305   19.4218 C.3     1  UNL1        0.2525
@<TRIPOS>BOND
     1    13    14    1
     2    14    19   ar
     3    14    15   ar
     4    15    16   ar
     5    16    17   ar
     6    17    18   ar
     7    17    20    1
     8    18    19   ar
     9    18    12    1
    10    12    11    1
    11    11     1    1
    12     1     7   ar
    13     1     2   ar
    14     2     3   ar
    15     3     4    2
    16     3     5   ar
    17     5     6   ar
    18     5    21    1
    19     6     7   ar
    20     6     8    1
    21    21    22    1
    22    22    23    1
    23    23    24    1
    24    24    25    1
    25    25    30   ar
    26    25    26   ar
    27    26    27   ar
    28    27    28   ar
    29    28    29   ar
    30    28    31    1
    31    29    30   ar
    32    31    32    1
    33     2     9    1
    34     8    10    1
#	Name:			ZINC16884655
#	Creating user name:	trannguyen
#	Creation time:		Wed Dec  7 14:36:19 2022


#	Modifying user name:	trannguyen
#	Modification time:	Wed Dec  7 14:36:19 2022

@<TRIPOS>MOLECULE
ZINC16884655
 41 44 0 0 0
SMALL
GASTEIGER

@<TRIPOS>ATOM
      1 C          16.5662  -25.5288   16.4531 C.ar    1  UNL1        0.2161
      2 N          16.6932  -24.8948   17.6018 N.ar    1  UNL1       -0.2185
      3 C          17.8555  -24.3642   17.9753 C.ar    1  UNL1        0.0631
      4 C          18.9481  -24.4697   17.1645 C.ar    1  UNL1        0.0520
      5 C          18.8211  -25.1446   15.9374 C.ar    1  UNL1        0.2606
      6 O          19.7772  -25.2572   15.1879 O.2     1  UNL1       -0.2672
      7 N          17.6206  -25.6651   15.6043 N.ar    1  UNL1       -0.2638
      8 C          17.9635  -23.6407   19.2927 C.3     1  UNL1        0.0520
      9 N          15.3521  -26.0590   16.1082 N.pl3   1  UNL1       -0.2358
     10 H          14.9358  -25.8178   15.2493 H       1  UNL1        0.1729
     11 N          14.7022  -26.9449   16.9775 N.pl3   1  UNL1       -0.2631
     12 H          15.1264  -27.1996   17.8285 H       1  UNL1        0.1700
     13 C          10.9820  -28.4975   15.9634 C.ar    1  UNL1        0.0757
     14 C          11.4171  -27.2945   15.3983 C.ar    1  UNL1        0.0077
     15 C          12.6448  -26.7852   15.7347 C.ar    1  UNL1        0.0160
     16 C          13.4581  -27.4642   16.6382 C.ar    1  UNL1        0.0612
     17 C          13.0304  -28.6652   17.1983 C.ar    1  UNL1        0.0160
     18 C          11.8015  -29.1771   16.8702 C.ar    1  UNL1        0.0077
     19 C           9.6627  -29.0476   15.6044 C.2     1  UNL1        0.3412
     20 O           8.7134  -28.8818   16.3447 O.2     1  UNL1       -0.2449
     21 O           9.5091  -29.7345   14.4553 O.3     1  UNL1       -0.4454
     22 C          10.3787  -30.8791   14.2502 C.3     1  UNL1        0.2088
     23 C          11.1854  -30.6829   12.9650 C.3     1  UNL1        0.0475
     24 C          12.9365  -28.9224   12.6882 C.3     1  UNL1        0.0001
     25 C          12.6183  -30.2796   13.3187 C.3     1  UNL1        0.0038
     26 C          17.4539  -26.3738   14.3330 C.3     1  UNL1        0.1384
     27 C          17.3525  -25.3741   13.2100 C.ar    1  UNL1        0.0006
     28 C          18.2406  -25.4304   12.1522 C.ar    1  UNL1       -0.0024
     29 C          18.1445  -24.5162   11.1197 C.ar    1  UNL1       -0.0003
     30 C          17.1669  -23.5393   11.1501 C.ar    1  UNL1       -0.0000
     31 C          16.2821  -23.4799   12.2105 C.ar    1  UNL1       -0.0003
     32 C          16.3748  -24.3973   13.2405 C.ar    1  UNL1       -0.0024
     33 C          20.2690  -23.8734   17.5776 C.3     1  UNL1        0.0587
     34 C          20.3959  -22.4864   17.0021 C.ar    1  UNL1       -0.0174
     35 C          20.9734  -22.3052   15.7589 C.ar    1  UNL1       -0.0008
     36 C          21.0858  -21.0353   15.2267 C.ar    1  UNL1        0.0366
     37 C          20.6285  -19.9403   15.9455 C.ar    1  UNL1        0.1387
     38 C          20.0546  -20.1243   17.1951 C.ar    1  UNL1        0.0366
     39 C          19.9399  -21.3967   17.7206 C.ar    1  UNL1       -0.0008
     40 O          20.7429  -18.6895   15.4264 O.3     1  UNL1       -0.4714
     41 C          21.9835  -18.3582   14.7995 C.3     1  UNL1        0.2525
@<TRIPOS>BOND
     1    24    25    1
     2    25    23    1
     3    23    22    1
     4    22    21    1
     5    21    19    1
     6    19    20    2
     7    19    13    1
     8    13    18   ar
     9    13    14   ar
    10    14    15   ar
    11    15    16   ar
    12    16    17   ar
    13    16    11    1
    14    17    18   ar
    15    11     9    1
    16     9     1    1
    17     1     7   ar
    18     1     2   ar
    19     2     3   ar
    20     3     4   ar
    21     3     8    1
    22     4     5   ar
    23     4    33    1
    24     5     6    2
    25     5     7   ar
    26     7    26    1
    27    26    27    1
    28    27    32   ar
    29    27    28   ar
    30    28    29   ar
    31    29    30   ar
    32    30    31   ar
    33    31    32   ar
    34    33    34    1
    35    34    39   ar
    36    34    35   ar
    37    35    36   ar
    38    36    37   ar
    39    37    38   ar
    40    37    40    1
    41    38    39   ar
    42    40    41    1
    43    11    12    1
    44     9    10    1
#	Name:			ZINC16884844
#	Creating user name:	trannguyen
#	Creation time:		Wed Dec  7 14:36:20 2022


#	Modifying user name:	trannguyen
#	Modification time:	Wed Dec  7 14:36:20 2022

@<TRIPOS>MOLECULE
ZINC16884844
 41 45 0 0 0
SMALL
GASTEIGER

@<TRIPOS>ATOM
      1 C          17.0914  -25.3570   15.3173 C.ar    1  UNL1        0.2161
      2 N          17.0858  -24.4202   14.3900 N.ar    1  UNL1       -0.2185
      3 C          18.1806  -23.7172   14.1091 C.ar    1  UNL1        0.0631
      4 C          19.3412  -23.9584   14.7851 C.ar    1  UNL1        0.0520
      5 C          19.3557  -24.9560   15.7759 C.ar    1  UNL1        0.2606
      6 O          20.3760  -25.1980   16.3998 O.2     1  UNL1       -0.2672
      7 N          18.2175  -25.6376   16.0273 N.ar    1  UNL1       -0.2638
      8 C          18.1384  -22.6534   13.0425 C.3     1  UNL1        0.0520
      9 N          15.9427  -26.0559   15.5744 N.pl3   1  UNL1       -0.2358
     10 H          15.9921  -26.9544   15.9737 H       1  UNL1        0.1729
     11 N          14.6968  -25.4924   15.2693 N.pl3   1  UNL1       -0.2631
     12 H          14.5305  -24.5389   15.4490 H       1  UNL1        0.1700
     13 C          11.7025  -27.8473   13.6062 C.ar    1  UNL1        0.0757
     14 C          11.3852  -26.8939   14.5789 C.ar    1  UNL1        0.0077
     15 C          12.3753  -26.1186   15.1254 C.ar    1  UNL1        0.0160
     16 C          13.6954  -26.2798   14.7128 C.ar    1  UNL1        0.0612
     17 C          14.0147  -27.2279   13.7446 C.ar    1  UNL1        0.0160
     18 C          13.0294  -28.0063   13.1938 C.ar    1  UNL1        0.0077
     19 C          10.6409  -28.6828   13.0170 C.2     1  UNL1        0.3412
     20 O           9.5997  -28.1740   12.6515 O.2     1  UNL1       -0.2449
     21 O          10.8249  -30.0112   12.8834 O.3     1  UNL1       -0.4454
     22 C          11.5199  -31.1279   14.9328 C.3     1  UNL1        0.0513
     23 C          10.3617  -30.8535   13.9715 C.3     1  UNL1        0.2089
     24 C          18.1969  -26.6797   17.0568 C.3     1  UNL1        0.1384
     25 C          17.6000  -26.1226   18.3235 C.ar    1  UNL1        0.0006
     26 C          16.5842  -26.8044   18.9670 C.ar    1  UNL1       -0.0024
     27 C          16.0401  -26.2958   20.1316 C.ar    1  UNL1       -0.0003
     28 C          16.5045  -25.1001   20.6467 C.ar    1  UNL1       -0.0000
     29 C          17.5167  -24.4156   20.0003 C.ar    1  UNL1       -0.0003
     30 C          18.0645  -24.9268   18.8387 C.ar    1  UNL1       -0.0024
     31 C          20.5865  -23.1684   14.4752 C.3     1  UNL1        0.0587
     32 C          20.5603  -21.8693   15.2386 C.ar    1  UNL1       -0.0176
     33 C          20.1671  -21.8493   16.5417 C.ar    1  UNL1       -0.0039
     34 C          20.1364  -20.6579   17.2635 C.ar    1  UNL1       -0.0003
     35 C          20.4991  -19.4794   16.6868 C.ar    1  UNL1       -0.0000
     36 C          20.9111  -19.4605   15.3437 C.ar    1  UNL1       -0.0003
     37 C          20.9470  -20.6733   14.6107 C.ar    1  UNL1       -0.0036
     38 C          21.3543  -20.6535   13.2657 C.ar    1  UNL1       -0.0003
     39 C          21.7168  -19.4753   12.6892 C.ar    1  UNL1       -0.0000
     40 C          21.6855  -18.2834   13.4111 C.ar    1  UNL1       -0.0000
     41 C          21.2923  -18.2633   14.7139 C.ar    1  UNL1       -0.0000
@<TRIPOS>BOND
     1    22    23    1
     2    23    21    1
     3    21    19    1
     4    19    20    2
     5    19    13    1
     6    13    18   ar
     7    13    14   ar
     8    14    15   ar
     9    15    16   ar
    10    16    17   ar
    11    16    11    1
    12    17    18   ar
    13    11     9    1
    14     9     1    1
    15     1     7   ar
    16     1     2   ar
    17     2     3   ar
    18     3     4   ar
    19     3     8    1
    20     4     5   ar
    21     4    31    1
    22     5     6    2
    23     5     7   ar
    24     7    24    1
    25    24    25    1
    26    25    30   ar
    27    25    26   ar
    28    26    27   ar
    29    27    28   ar
    30    28    29   ar
    31    29    30   ar
    32    31    32    1
    33    32    37   ar
    34    32    33   ar
    35    33    34   ar
    36    34    35   ar
    37    35    36   ar
    38    36    41   ar
    39    36    37   ar
    40    37    38   ar
    41    38    39   ar
    42    39    40   ar
    43    40    41   ar
    44    11    12    1
    45     9    10    1
#	Name:			ZINC16885100
#	Creating user name:	trannguyen
#	Creation time:		Wed Dec  7 14:36:19 2022


#	Modifying user name:	trannguyen
#	Modification time:	Wed Dec  7 14:36:19 2022

@<TRIPOS>MOLECULE
ZINC16885100
 41 44 0 0 0
SMALL
GASTEIGER

@<TRIPOS>ATOM
      1 C          18.6236  -25.2262   17.2691 C.ar    1  UNL1        0.2161
      2 N          17.7446  -25.3719   18.2406 N.ar    1  UNL1       -0.2185
      3 C          16.8114  -26.3199   18.1937 C.ar    1  UNL1        0.0631
      4 C          16.7487  -27.1666   17.1254 C.ar    1  UNL1        0.0520
      5 C          17.6798  -27.0149   16.0826 C.ar    1  UNL1        0.2606
      6 O          17.6500  -27.7513   15.1103 O.2     1  UNL1       -0.2672
      7 N          18.6100  -26.0411   16.1797 N.ar    1  UNL1       -0.2638
      8 C          15.8220  -26.4581   19.3221 C.3     1  UNL1        0.0520
      9 N          19.5663  -24.2375   17.3579 N.pl3   1  UNL1       -0.2358
     10 H          20.5031  -24.4279   17.1220 H       1  UNL1        0.1729
     11 N          19.1982  -22.9548   17.7843 N.pl3   1  UNL1       -0.2631
     12 H          18.4912  -22.8449   18.4606 H       1  UNL1        0.1700
     13 C          21.0911  -19.6130   16.1946 C.ar    1  UNL1        0.0757
     14 C          21.3418  -20.8809   15.6602 C.ar    1  UNL1        0.0077
     15 C          20.7154  -21.9811   16.1867 C.ar    1  UNL1        0.0160
     16 C          19.8311  -21.8373   17.2525 C.ar    1  UNL1        0.0612
     17 C          19.5751  -20.5757   17.7833 C.ar    1  UNL1        0.0160
     18 C          20.2019  -19.4720   17.2648 C.ar    1  UNL1        0.0077
     19 C          21.7629  -18.4283   15.6314 C.2     1  UNL1        0.3412
     20 O          22.7278  -17.9514   16.1955 O.2     1  UNL1       -0.2449
     21 O          21.3072  -17.8739   14.4908 O.3     1  UNL1       -0.4454
     22 C          21.5013  -19.3328   12.5505 C.3     1  UNL1        0.0513
     23 C          22.0773  -18.1203   13.2846 C.3     1  UNL1        0.2089
     24 C          19.5974  -25.8586   15.1130 C.3     1  UNL1        0.1381
     25 C          19.1521  -24.7442   14.2015 C.ar    1  UNL1       -0.0037
     26 C          17.8046  -24.4813   14.0383 C.ar    1  UNL1       -0.0070
     27 C          17.3961  -23.4626   13.1983 C.ar    1  UNL1       -0.0221
     28 C          18.3352  -22.7001   12.5288 C.ar    1  UNL1       -0.0046
     29 C          19.6824  -22.9602   12.6953 C.ar    1  UNL1       -0.0048
     30 C          20.0909  -23.9823   13.5320 C.ar    1  UNL1       -0.0240
     31 C          21.5599  -24.2659   13.7134 C.3     1  UNL1        0.0308
     32 C          15.9272  -23.1790   13.0167 C.3     1  UNL1        0.0310
     33 C          15.6957  -28.2428   17.0614 C.3     1  UNL1        0.0587
     34 C          14.5213  -27.7493   16.2563 C.ar    1  UNL1       -0.0174
     35 C          13.5144  -28.6257   15.8959 C.ar    1  UNL1       -0.0008
     36 C          12.4339  -28.1745   15.1628 C.ar    1  UNL1        0.0366
     37 C          12.3650  -26.8433   14.7789 C.ar    1  UNL1        0.1387
     38 C          13.3793  -25.9671   15.1370 C.ar    1  UNL1        0.0366
     39 C          14.4551  -26.4220   15.8746 C.ar    1  UNL1       -0.0008
     40 O          11.3058  -26.3982   14.0529 O.3     1  UNL1       -0.4714
     41 C          10.4266  -27.3877   13.5147 C.3     1  UNL1        0.2525
@<TRIPOS>BOND
     1    22    23    1
     2    23    21    1
     3    21    19    1
     4    19    20    2
     5    19    13    1
     6    13    18   ar
     7    13    14   ar
     8    14    15   ar
     9    15    16   ar
    10    16    17   ar
    11    16    11    1
    12    17    18   ar
    13    11     9    1
    14     9     1    1
    15     1     7   ar
    16     1     2   ar
    17     2     3   ar
    18     3     4   ar
    19     3     8    1
    20     4     5   ar
    21     4    33    1
    22     5     6    2
    23     5     7   ar
    24     7    24    1
    25    24    25    1
    26    25    30   ar
    27    25    26   ar
    28    26    27   ar
    29    27    28   ar
    30    27    32    1
    31    28    29   ar
    32    29    30   ar
    33    30    31    1
    34    33    34    1
    35    34    39   ar
    36    34    35   ar
    37    35    36   ar
    38    36    37   ar
    39    37    38   ar
    40    37    40    1
    41    38    39   ar
    42    40    41    1
    43    11    12    1
    44     9    10    1
#	Name:			ZINC16909035
#	Creating user name:	trannguyen
#	Creation time:		Wed Dec  7 14:36:19 2022


#	Modifying user name:	trannguyen
#	Modification time:	Wed Dec  7 14:36:19 2022

@<TRIPOS>MOLECULE
ZINC16909035
 39 42 0 0 0
SMALL
GASTEIGER

@<TRIPOS>ATOM
      1 O          19.4885  -22.2589   17.9647 O.3     1  UNL1       -0.4370
      2 C          19.5958  -23.5567   18.3112 C.2     1  UNL1        0.3417
      3 O          20.5991  -23.9559   18.8684 O.2     1  UNL1       -0.2449
      4 C          18.4954  -24.4924   18.0140 C.ar    1  UNL1        0.0789
      5 C          18.3793  -25.0553   16.7400 C.ar    1  UNL1        0.0098
      6 C          17.3504  -25.9289   16.4642 C.ar    1  UNL1        0.0403
      7 C          16.4268  -26.2521   17.4493 C.ar    1  UNL1        0.1727
      8 C          16.5334  -25.6904   18.7208 C.ar    1  UNL1        0.1726
      9 C          17.5658  -24.8182   19.0059 C.ar    1  UNL1        0.0465
     10 O          15.6238  -26.0048   19.6817 O.3     1  UNL1       -0.4684
     11 C          16.1288  -26.2636   20.9932 C.3     1  UNL1        0.2526
     12 O          15.4139  -27.1130   17.1719 O.3     1  UNL1       -0.4674
     13 C          15.0779  -27.2974   15.7953 C.3     1  UNL1        0.2362
     14 C          13.7911  -26.5745   15.4911 C.ar    1  UNL1        0.0708
     15 C          12.4733  -27.0839   15.5419 C.ar    1  UNL1        0.1001
     16 N          11.6871  -26.1041   15.2008 N.ar    1  UNL1       -0.0820
     17 O          12.3108  -25.0976   14.9553 O.2     1  UNL1       -0.3583
     18 C          13.6289  -25.2844   15.1114 C.ar    1  UNL1        0.1539
     19 C          14.7160  -24.2617   14.9031 C.3     1  UNL1        0.0751
     20 C          12.0604  -28.4839   15.9172 C.3     1  UNL1        0.0554
     21 C          20.6438  -21.4138   18.2091 C.3     1  UNL1        0.2737
     22 C          20.8247  -20.3749   14.6821 C.ar    1  UNL1        0.2242
     23 N          20.5440  -21.0638   15.7861 N.ar    1  UNL1       -0.1947
     24 C          20.9682  -20.6336   16.9613 C.ar    1  UNL1        0.1889
     25 N          21.6810  -19.5237   17.0445 N.ar    1  UNL1       -0.1951
     26 C          21.9699  -18.8321   15.9446 C.ar    1  UNL1        0.2173
     27 N          21.5409  -19.2589   14.7618 N.ar    1  UNL1       -0.1810
     28 N          22.7138  -17.6732   16.0327 N.pl3   1  UNL1       -0.3273
     29 H          23.0313  -17.3575   16.9095 H       1  UNL1        0.1452
     30 H          22.9268  -17.1620   15.2188 H       1  UNL1        0.1452
     31 N          20.3760  -20.8225   13.4548 N.pl3   1  UNL1       -0.2824
     32 H          20.4255  -20.2332   12.6677 H       1  UNL1        0.1551
     33 C          18.2480  -26.0563   12.9511 C.3     1  UNL1        0.0310
     34 C          18.8134  -24.6658   13.0848 C.ar    1  UNL1       -0.0218
     35 C          20.1678  -24.4896   13.3014 C.ar    1  UNL1       -0.0030
     36 C          20.6891  -23.2167   13.4243 C.ar    1  UNL1        0.0144
     37 C          19.8514  -22.1127   13.3302 C.ar    1  UNL1        0.0504
     38 C          18.4908  -22.2934   13.1179 C.ar    1  UNL1        0.0144
     39 C          17.9768  -23.5689   12.9902 C.ar    1  UNL1       -0.0030
@<TRIPOS>BOND
     1    33    34    1
     2    34    39   ar
     3    34    35   ar
     4    35    36   ar
     5    36    37   ar
     6    37    38   ar
     7    37    31    1
     8    38    39   ar
     9    31    22    1
    10    22    27   ar
    11    22    23   ar
    12    23    24   ar
    13    24    25   ar
    14    24    21    1
    15    25    26   ar
    16    26    27   ar
    17    26    28    1
    18    21     1    1
    19     1     2    1
    20     2     3    2
    21     2     4    1
    22     4     9   ar
    23     4     5   ar
    24     5     6   ar
    25     6     7   ar
    26     7     8   ar
    27     7    12    1
    28     8     9   ar
    29     8    10    1
    30    10    11    1
    31    12    13    1
    32    13    14    1
    33    14    18   ar
    34    14    15   ar
    35    15    16   ar
    36    15    20    1
    37    16    17   ar
    38    17    18   ar
    39    18    19    1
    40    31    32    1
    41    28    29    1
    42    28    30    1
#	Name:			ZINC17109079
#	Creating user name:	trannguyen
#	Creation time:		Wed Dec  7 14:36:20 2022


#	Modifying user name:	trannguyen
#	Modification time:	Wed Dec  7 14:36:20 2022

@<TRIPOS>MOLECULE
ZINC17109079
 33 35 0 0 0
SMALL
GASTEIGER

@<TRIPOS>ATOM
      1 C          18.3479  -25.9142   19.9911 C.2     1  UNL1        0.3270
      2 O          18.7017  -26.1577   21.1206 O.2     1  UNL1       -0.2492
      3 C          16.9167  -25.5309   19.7159 C.3     1  UNL1        0.1469
      4 C          16.7963  -24.0063   19.6730 C.3     1  UNL1        0.0235
      5 S          16.4013  -26.2234   18.1205 S.3     1  UNL1       -0.1203
      6 C          16.6911  -24.8748   16.9425 C.3     1  UNL1        0.1432
      7 N          18.6456  -26.1545   16.1297 N.am    1  UNL1       -0.2832
      8 C          17.5984  -25.3570   15.8402 C.2     1  UNL1        0.2371
      9 O          17.3862  -25.0274   14.6924 O.2     1  UNL1       -0.2738
     10 H          18.7745  -26.4836   17.0485 H       1  UNL1        0.1549
     11 C          22.3108  -27.6151   12.0532 C.3     1  UNL1        0.0310
     12 C          21.3371  -27.2270   13.1360 C.ar    1  UNL1       -0.0218
     13 C          20.1550  -27.9289   13.2847 C.ar    1  UNL1       -0.0030
     14 C          19.2606  -27.5757   14.2761 C.ar    1  UNL1        0.0143
     15 C          19.5496  -26.5147   15.1242 C.ar    1  UNL1        0.0503
     16 C          20.7351  -25.8083   14.9686 C.ar    1  UNL1        0.0143
     17 C          21.6281  -26.1704   13.9791 C.ar    1  UNL1       -0.0030
     18 O          19.2298  -25.9851   18.9817 O.3     1  UNL1       -0.4422
     19 C          20.5884  -25.5559   19.2618 C.3     1  UNL1        0.2444
     20 C          21.5646  -26.6687   18.8752 C.3     1  UNL1        0.0575
     21 C          20.8982  -24.3161   18.4631 C.2     1  UNL1        0.2664
     22 O          22.0482  -24.0379   18.1965 O.2     1  UNL1       -0.2709
     23 N          19.8971  -23.5163   18.0449 N.am    1  UNL1       -0.2810
     24 H          18.9710  -23.6997   18.3243 H       1  UNL1        0.1550
     25 C          20.1740  -22.4253   17.2137 C.ar    1  UNL1        0.0501
     26 C          20.5757  -21.2148   17.7637 C.ar    1  UNL1        0.0143
     27 C          20.8479  -20.1425   16.9393 C.ar    1  UNL1       -0.0033
     28 C          20.7225  -20.2672   15.5651 C.ar    1  UNL1       -0.0260
     29 C          20.3228  -21.4711   15.0146 C.ar    1  UNL1       -0.0249
     30 C          20.0487  -22.5493   15.8376 C.ar    1  UNL1        0.0101
     31 C          20.2633  -21.3497   13.5068 C.3     1  UNL1        0.0264
     32 C          21.0855  -20.0875   13.1705 C.3     1  UNL1        0.0093
     33 C          20.9589  -19.2552   14.4641 C.3     1  UNL1        0.0264
@<TRIPOS>BOND
     1    11    12    1
     2    12    17   ar
     3    12    13   ar
     4    13    14   ar
     5    14    15   ar
     6    15    16   ar
     7    15     7    1
     8    16    17   ar
     9     7     8   am
    10     8     9    2
    11     8     6    1
    12     6     5    1
    13     5     3    1
    14     3     4    1
    15     3     1    1
    16     1     2    2
    17     1    18    1
    18    18    19    1
    19    19    20    1
    20    19    21    1
    21    21    22    2
    22    21    23   am
    23    23    25    1
    24    25    30   ar
    25    25    26   ar
    26    26    27   ar
    27    27    28   ar
    28    28    33    1
    29    28    29   ar
    30    29    30   ar
    31    29    31    1
    32    31    32    1
    33    32    33    1
    34     7    10    1
    35    23    24    1
#	Name:			ZINC17157938
#	Creating user name:	trannguyen
#	Creation time:		Wed Dec  7 14:36:19 2022


#	Modifying user name:	trannguyen
#	Modification time:	Wed Dec  7 14:36:19 2022

@<TRIPOS>MOLECULE
ZINC17157938
 40 43 0 0 0
SMALL
GASTEIGER

@<TRIPOS>ATOM
      1 C          21.1697  -21.3937   15.1317 C.3     1  UNL1        0.1818
      2 N          22.4526  -21.9193   14.6582 N.pl3   1  UNL1       -0.3089
      3 H          23.2167  -21.3117   14.5310 H       1  UNL1        0.1487
      4 N          24.5494  -25.2611   12.2167 N.ar    1  UNL1       -0.2147
      5 C          23.6022  -25.1026   13.1896 C.ar    1  UNL1        0.1859
      6 C          23.5039  -23.7185   13.4152 C.ar    1  UNL1        0.1711
      7 C          22.5899  -23.2677   14.3901 C.ar    1  UNL1        0.1544
      8 N          21.8607  -24.1654   15.0404 N.ar    1  UNL1       -0.1975
      9 C          21.9843  -25.4634   14.7904 C.ar    1  UNL1        0.2163
     10 N          22.8314  -25.9312   13.8887 N.ar    1  UNL1       -0.1934
     11 N          21.1995  -26.3578   15.4973 N.pl3   1  UNL1       -0.3274
     12 N          24.3781  -23.1052   12.5986 N.ar    1  UNL1       -0.1243
     13 N          25.0019  -23.9754   11.8837 N.ar    1  UNL1       -0.0624
     14 H          20.5634  -26.0278   16.1723 H       1  UNL1        0.1452
     15 H          21.2774  -27.3240   15.3251 H       1  UNL1        0.1452
     16 C          25.0032  -26.5267   11.6348 C.3     1  UNL1        0.1309
     17 C          23.9271  -27.0694   10.6921 C.3     1  UNL1        0.0265
     18 C          24.7583  -26.6638    8.3712 C.3     1  UNL1        0.0001
     19 C          24.5933  -27.7117    9.4737 C.3     1  UNL1        0.0021
     20 C          21.3599  -20.7404   16.4763 C.2     1  UNL1        0.3359
     21 O          21.8801  -19.6523   16.5511 O.2     1  UNL1       -0.2482
     22 O          20.9567  -21.3695   17.5913 O.3     1  UNL1       -0.4424
     23 C          19.8017  -22.2417   17.4751 C.3     1  UNL1        0.2351
     24 C          19.9738  -23.4277   18.3889 C.ar    1  UNL1        0.0213
     25 C          21.2231  -23.9952   18.5568 C.ar    1  UNL1       -0.0007
     26 C          21.3819  -25.0801   19.3987 C.ar    1  UNL1       -0.0002
     27 C          20.2896  -25.6036   20.0649 C.ar    1  UNL1       -0.0000
     28 C          19.0394  -25.0396   19.8926 C.ar    1  UNL1       -0.0002
     29 C          18.8816  -23.9515   19.0548 C.ar    1  UNL1       -0.0007
     30 C          20.6417  -20.3614   14.1333 C.3     1  UNL1        0.1405
     31 C          20.5000  -21.0016   12.7765 C.2     1  UNL1        0.3196
     32 O          21.4310  -20.9974   12.0063 O.2     1  UNL1       -0.2500
     33 O          19.3396  -21.5765   12.4236 O.3     1  UNL1       -0.4434
     34 C          19.3130  -23.0272   12.3669 C.3     1  UNL1        0.2350
     35 C          18.1788  -23.5425   13.2149 C.ar    1  UNL1        0.0213
     36 C          18.4447  -24.1661   14.4196 C.ar    1  UNL1       -0.0007
     37 C          17.4041  -24.6345   15.1998 C.ar    1  UNL1       -0.0002
     38 C          16.0983  -24.4881   14.7707 C.ar    1  UNL1       -0.0000
     39 C          15.8327  -23.8695   13.5632 C.ar    1  UNL1       -0.0002
     40 C          16.8730  -23.3965   12.7855 C.ar    1  UNL1       -0.0007
@<TRIPOS>BOND
     1    18    19    1
     2    19    17    1
     3    17    16    1
     4    16     4    1
     5     4    13   ar
     6     4     5   ar
     7     5    10   ar
     8     5     6   ar
     9     6     7   ar
    10     6    12   ar
    11     7     8   ar
    12     7     2    1
    13     8     9   ar
    14     9    10   ar
    15     9    11    1
    16     2     1    1
    17     1    30    1
    18     1    20    1
    19    30    31    1
    20    31    32    2
    21    31    33    1
    22    33    34    1
    23    34    35    1
    24    35    40   ar
    25    35    36   ar
    26    36    37   ar
    27    37    38   ar
    28    38    39   ar
    29    39    40   ar
    30    20    21    2
    31    20    22    1
    32    22    23    1
    33    23    24    1
    34    24    29   ar
    35    24    25   ar
    36    25    26   ar
    37    26    27   ar
    38    27    28   ar
    39    28    29   ar
    40    12    13   ar
    41    11    14    1
    42    11    15    1
    43     2     3    1
#	Name:			ZINC17306969
#	Creating user name:	trannguyen
#	Creation time:		Wed Dec  7 14:36:19 2022


#	Modifying user name:	trannguyen
#	Modification time:	Wed Dec  7 14:36:19 2022

@<TRIPOS>MOLECULE
ZINC17306969
 48 49 0 0 0
SMALL
GASTEIGER

@<TRIPOS>ATOM
      1 C          17.2204  -25.4458   16.2110 C.3     1  UNL1        0.1827
      2 C          18.1051  -25.4639   14.9911 C.2     1  UNL1        0.2482
      3 O          18.0733  -26.4099   14.2329 O.2     1  UNL1       -0.2728
      4 N          18.9317  -24.4288   14.7428 N.am    1  UNL1       -0.2745
      5 C          19.0553  -23.3232   15.7031 C.3     1  UNL1        0.1151
      6 C          20.5397  -23.1655   16.0734 C.3     1  UNL1        0.1182
      7 N          21.3290  -23.1191   14.8345 N.am    1  UNL1       -0.2425
      8 C          21.2012  -24.2220   13.8716 C.3     1  UNL1        0.1182
      9 C          19.7210  -24.3824   13.5039 C.3     1  UNL1        0.1151
     10 C          22.1556  -22.0839   14.5862 C.2     1  UNL1        0.4047
     11 O          22.8035  -22.0568   13.5585 O.2     1  UNL1       -0.2262
     12 O          22.2635  -21.0800   15.4767 O.3     1  UNL1       -0.4418
     13 C          21.4249  -19.9143   15.2608 C.3     1  UNL1        0.1378
     14 C          20.4319  -19.7794   16.4170 C.3     1  UNL1        0.0437
     15 C          22.3007  -18.6617   15.1918 C.3     1  UNL1        0.0437
     16 C          20.6584  -20.0740   13.9463 C.3     1  UNL1        0.0437
     17 C          13.7918  -26.2416   15.5060 C.ar    1  UNL1        0.1187
     18 C          14.9781  -26.5650   16.0717 C.ar    1  UNL1        0.1153
     19 N          15.8178  -25.5397   15.7985 N.ar    1  UNL1       -0.2236
     20 N          15.1728  -24.6614   15.1136 N.ar    1  UNL1       -0.0637
     21 N          13.9633  -25.0527   14.9172 N.ar    1  UNL1       -0.1315
     22 C          12.5281  -27.0625   15.5293 C.3     1  UNL1        0.1183
     23 N          11.8378  -26.8601   16.8054 N.am    1  UNL1       -0.2669
     24 C          11.1298  -27.8664   17.3555 C.2     1  UNL1        0.4016
     25 O          11.0641  -28.9414   16.7931 O.2     1  UNL1       -0.2264
     26 H          11.8910  -25.9891   17.2612 H       1  UNL1        0.1530
     27 O          10.4953  -27.6804   18.5283 O.3     1  UNL1       -0.4419
     28 C          11.2120  -28.0592   19.7330 C.3     1  UNL1        0.1378
     29 C          11.8437  -26.8161   20.3628 C.3     1  UNL1        0.0437
     30 C          10.2384  -28.6958   20.7269 C.3     1  UNL1        0.0437
     31 C          12.3093  -29.0649   19.3786 C.3     1  UNL1        0.0437
     32 C          11.6157  -26.6266   14.3810 C.3     1  UNL1        0.0259
     33 C          12.4606  -28.8920   13.7508 C.3     1  UNL1        0.0001
     34 C          11.5257  -27.7503   13.3465 C.3     1  UNL1        0.0020
     35 C          10.0875  -28.2682   13.2799 C.3     1  UNL1        0.0001
     36 C          17.5681  -26.6336   17.1107 C.3     1  UNL1        0.0339
     37 C          17.6266  -26.1700   18.5676 C.3     1  UNL1        0.0043
     38 C          17.9430  -24.6738   18.6144 C.3     1  UNL1        0.0214
     39 C          19.2500  -24.4526   19.3783 C.3     1  UNL1        0.0927
     40 N          19.9445  -25.7325   19.5388 N.am    1  UNL1       -0.2707
     41 C          21.2564  -25.8288   19.2455 C.2     1  UNL1        0.4014
     42 O          21.8633  -24.8540   18.8479 O.2     1  UNL1       -0.2264
     43 H          19.4529  -26.5224   19.8610 H       1  UNL1        0.1527
     44 O          21.8946  -27.0051   19.3931 O.3     1  UNL1       -0.4419
     45 C          21.6811  -28.0048   18.3620 C.3     1  UNL1        0.1378
     46 C          20.6095  -28.9940   18.8249 C.3     1  UNL1        0.0437
     47 C          21.2201  -27.3191   17.0743 C.3     1  UNL1        0.0437
     48 C          22.9887  -28.7551   18.1005 C.3     1  UNL1        0.0437
@<TRIPOS>BOND
     1    33    34    1
     2    34    35    1
     3    34    32    1
     4    32    22    1
     5    22    17    1
     6    22    23    1
     7    17    21   ar
     8    17    18   ar
     9    18    19   ar
    10    19    20   ar
    11    19     1    1
    12    20    21   ar
    13     1    36    1
    14     1     2    1
    15    36    37    1
    16    37    38    1
    17    38    39    1
    18    39    40    1
    19    40    41   am
    20    41    42    2
    21    41    44    1
    22    44    45    1
    23    45    46    1
    24    45    47    1
    25    45    48    1
    26     2     3    2
    27     2     4   am
    28     4     9    1
    29     4     5    1
    30     5     6    1
    31     6     7    1
    32     7     8    1
    33     7    10   am
    34     8     9    1
    35    10    11    2
    36    10    12    1
    37    12    13    1
    38    13    14    1
    39    13    15    1
    40    13    16    1
    41    23    24   am
    42    24    25    2
    43    24    27    1
    44    27    28    1
    45    28    29    1
    46    28    30    1
    47    28    31    1
    48    40    43    1
    49    23    26    1
#	Name:			ZINC17307080
#	Creating user name:	trannguyen
#	Creation time:		Wed Dec  7 14:36:19 2022


#	Modifying user name:	trannguyen
#	Modification time:	Wed Dec  7 14:36:19 2022

@<TRIPOS>MOLECULE
ZINC17307080
 47 50 0 0 0
SMALL
GASTEIGER

@<TRIPOS>ATOM
      1 C          20.5829  -25.2044   14.4138 C.ar    1  UNL1        0.0212
      2 C          21.4143  -26.0738   13.7128 C.ar    1  UNL1        0.0032
      3 C          20.9941  -27.3726   13.4405 C.ar    1  UNL1        0.0212
      4 C          19.7423  -27.8035   13.8688 C.ar    1  UNL1        0.0061
      5 C          18.9086  -26.9337   14.5703 C.ar    1  UNL1        0.0537
      6 C          19.3331  -25.6344   14.8474 C.ar    1  UNL1        0.0061
      7 C          17.5782  -27.3905   15.0264 C.2     1  UNL1        0.2494
      8 O          17.4865  -28.3434   15.7755 O.2     1  UNL1       -0.2699
      9 N          16.4671  -26.7503   14.6115 N.am    1  UNL1       -0.2646
     10 C          16.5495  -25.6444   13.6453 C.3     1  UNL1        0.1548
     11 C          15.7801  -24.4473   14.2016 C.3     1  UNL1        0.1242
     12 C          14.4274  -25.8753   15.6202 C.3     1  UNL1        0.1242
     13 C          15.1408  -27.1349   15.1174 C.3     1  UNL1        0.1548
     14 N          14.4060  -24.8598   14.5492 N.4     1  UNL1        0.2569
     15 H          13.9541  -25.2522   13.7232 H       1  UNL1        0.2036
     16 H          13.8895  -24.0440   14.8779 H       1  UNL1        0.2036
     17 N          21.0844  -21.6876   15.1078 N.ar    1  UNL1       -0.2269
     18 C          20.2438  -22.7168   14.8581 C.ar    1  UNL1        0.1179
     19 C          21.0329  -23.8195   14.7037 C.ar    1  UNL1        0.1232
     20 N          22.3002  -23.3997   14.8676 N.ar    1  UNL1       -0.1287
     21 N          22.2907  -22.1346   15.0990 N.ar    1  UNL1       -0.0635
     22 C          20.6886  -20.2968   15.3427 C.3     1  UNL1        0.1428
     23 C          21.7417  -19.3740   14.7856 C.2     1  UNL1        0.0727
     24 O          21.6998  -19.0400   13.6251 O.co2   1  UNL1       -0.5472
     25 O          22.7231  -18.9185   15.5800 O.co2   1  UNL1       -0.5472
     26 C          20.5425  -20.0551   16.8464 C.3     1  UNL1        0.0279
     27 C          19.6459  -18.8380   17.0825 C.3     1  UNL1        0.0024
     28 C          20.8568  -21.8280   18.5786 C.3     1  UNL1        0.0001
     29 C          19.9140  -21.2864   17.5022 C.3     1  UNL1        0.0023
     30 C          21.8821  -28.2986   12.6934 C.ar    1  UNL1        0.1232
     31 C          22.7085  -27.9818   11.6545 C.ar    1  UNL1        0.1181
     32 N          23.3174  -29.1347   11.2963 N.ar    1  UNL1       -0.2213
     33 N          22.8848  -30.0780   12.0567 N.ar    1  UNL1       -0.0634
     34 N          22.0295  -29.6192   12.9005 N.ar    1  UNL1       -0.1287
     35 C          24.3006  -29.2853   10.2206 C.3     1  UNL1        0.2049
     36 C          24.6553  -30.7416   10.0646 C.2     1  UNL1        0.3397
     37 O          24.0522  -31.4291    9.2749 O.2     1  UNL1       -0.2479
     38 O          25.6412  -31.2751   10.8030 O.3     1  UNL1       -0.4431
     39 C          25.5265  -32.6834   11.1370 C.3     1  UNL1        0.2557
     40 C          25.5598  -28.4876   10.5653 C.3     1  UNL1        0.0361
     41 C          25.6957  -27.3074    9.6010 C.3     1  UNL1        0.0087
     42 C          25.2356  -27.7336    8.2054 C.3     1  UNL1        0.0608
     43 C          24.7792  -26.5020    7.4207 C.3     1  UNL1        0.0993
     44 N          24.7653  -26.8265    5.9834 N.4     1  UNL1        0.2323
     45 H          25.7027  -27.0984    5.6872 H       1  UNL1        0.2005
     46 H          24.4651  -26.0085    5.4531 H       1  UNL1        0.2005
     47 H          24.1185  -27.5970    5.8150 H       1  UNL1        0.2005
@<TRIPOS>UNITY_ATOM_ATTR
14 1
charge 1
25 1
charge -1
44 1
charge 1
@<TRIPOS>BOND
     1    28    29    1
     2    29    26    1
     3    26    27    1
     4    26    22    1
     5    22    23    1
     6    22    17    1
     7    23    24   ar
     8    23    25   ar
     9    17    21   ar
    10    17    18   ar
    11    18    19   ar
    12    19    20   ar
    13    19     1    1
    14    20    21   ar
    15     1     6   ar
    16     1     2   ar
    17     2     3   ar
    18     3     4   ar
    19     3    30    1
    20     4     5   ar
    21     5     6   ar
    22     5     7    1
    23     7     8    2
    24     7     9   am
    25     9    13    1
    26     9    10    1
    27    10    11    1
    28    11    14    1
    29    12    13    1
    30    12    14    1
    31    30    34   ar
    32    30    31   ar
    33    31    32   ar
    34    32    33   ar
    35    32    35    1
    36    33    34   ar
    37    35    40    1
    38    35    36    1
    39    40    41    1
    40    41    42    1
    41    42    43    1
    42    43    44    1
    43    36    37    2
    44    36    38    1
    45    38    39    1
    46    14    15    1
    47    14    16    1
    48    44    45    1
    49    44    46    1
    50    44    47    1
#	Name:			ZINC17307222
#	Creating user name:	trannguyen
#	Creation time:		Wed Dec  7 14:36:20 2022


#	Modifying user name:	trannguyen
#	Modification time:	Wed Dec  7 14:36:20 2022

@<TRIPOS>MOLECULE
ZINC17307222
 45 49 0 0 0
SMALL
GASTEIGER

@<TRIPOS>ATOM
      1 C          15.3760  -27.3719   18.8312 C.2     1  UNL1        0.1007
      2 N          16.1797  -26.9946   19.7709 N.2     1  UNL1       -0.0875
      3 O          17.5458  -27.1375   19.4185 O.2     1  UNL1       -0.3829
      4 C          17.6016  -27.3039   18.0045 C.3     1  UNL1        0.1868
      5 C          16.2105  -27.8412   17.6503 C.3     1  UNL1        0.0936
      6 C          18.7103  -28.2769   17.5750 C.3     1  UNL1        0.0740
      7 C          19.9192  -27.3163   17.4199 C.3     1  UNL1        0.1552
      8 N          19.3456  -26.0619   16.8956 N.am    1  UNL1       -0.2692
      9 C          17.9218  -26.0011   17.2723 C.3     1  UNL1        0.1368
     10 C          20.0137  -25.1249   16.1941 C.2     1  UNL1        0.2267
     11 O          21.1907  -25.2782   15.9454 O.2     1  UNL1       -0.2748
     12 C          11.7653  -27.3909   17.7872 C.ar    1  UNL1        0.0503
     13 C          11.1303  -27.3090   19.0209 C.ar    1  UNL1        0.0147
     14 C          11.8746  -27.2478   20.1839 C.ar    1  UNL1        0.0013
     15 C          13.2534  -27.2733   20.1285 C.ar    1  UNL1        0.0014
     16 C          13.9010  -27.3501   18.8939 C.ar    1  UNL1        0.0180
     17 C          13.1494  -27.4119   17.7200 C.ar    1  UNL1        0.0159
     18 C          10.6394  -28.6480   16.1098 C.2     1  UNL1        0.2261
     19 O          10.8832  -29.6651   16.7238 O.2     1  UNL1       -0.2748
     20 N          11.0068  -27.4527   16.6127 N.am    1  UNL1       -0.2839
     21 H          10.7416  -26.6231   16.1537 H       1  UNL1        0.1549
     22 C           9.9259  -28.7207   14.7844 C.3     1  UNL1        0.0854
     23 C          10.8909  -29.2325   13.7130 C.3     1  UNL1        0.0096
     24 C          11.7765  -28.0812   13.2324 C.3     1  UNL1        0.0005
     25 C          13.9489  -27.1410   14.0319 C.3     1  UNL1        0.0000
     26 C          13.2411  -28.4034   13.5357 C.3     1  UNL1        0.0000
     27 C          20.9172  -27.8839   16.4437 C.2     1  UNL1        0.2376
     28 O          20.5343  -28.3889   15.4096 O.2     1  UNL1       -0.2736
     29 N          22.2353  -27.8303   16.7198 N.am    1  UNL1       -0.3275
     30 H          22.5461  -27.4205   17.5592 H       1  UNL1        0.1450
     31 H          22.8872  -28.2012   16.0821 H       1  UNL1        0.1450
     32 C          19.2982  -23.8866   15.7189 C.3     1  UNL1        0.0940
     33 C          19.7915  -23.5185   14.3182 C.3     1  UNL1        0.0536
     34 C          18.6745  -23.7119   13.3252 C.ar    1  UNL1       -0.0179
     35 C          18.9106  -24.3868   12.1421 C.ar    1  UNL1       -0.0039
     36 C          17.8848  -24.5683   11.2335 C.ar    1  UNL1       -0.0003
     37 C          16.6256  -24.0660   11.5032 C.ar    1  UNL1       -0.0000
     38 C          16.3908  -23.3866   12.6840 C.ar    1  UNL1       -0.0003
     39 C          17.4152  -23.2095   13.5949 C.ar    1  UNL1       -0.0039
     40 C          20.2327  -22.0776   14.3036 C.ar    1  UNL1       -0.0179
     41 C          20.3212  -21.3698   15.4877 C.ar    1  UNL1       -0.0039
     42 C          20.7305  -20.0495   15.4748 C.ar    1  UNL1       -0.0003
     43 C          21.0414  -19.4339   14.2768 C.ar    1  UNL1       -0.0000
     44 C          20.9479  -20.1402   13.0921 C.ar    1  UNL1       -0.0003
     45 C          20.5435  -21.4619   13.1056 C.ar    1  UNL1       -0.0039
@<TRIPOS>BOND
     1    25    26    1
     2    26    24    1
     3    24    23    1
     4    23    22    1
     5    22    18    1
     6    18    19    2
     7    18    20   am
     8    20    12    1
     9    12    17   ar
    10    12    13   ar
    11    13    14   ar
    12    14    15   ar
    13    15    16   ar
    14    16    17   ar
    15    16     1    1
    16     1     5    1
    17     1     2    2
    18     2     3    1
    19     3     4    1
    20     4     9    1
    21     4     5    1
    22     4     6    1
    23     6     7    1
    24     7     8    1
    25     7    27    1
    26     8     9    1
    27     8    10   am
    28    10    11    2
    29    10    32    1
    30    32    33    1
    31    33    34    1
    32    33    40    1
    33    34    39   ar
    34    34    35   ar
    35    35    36   ar
    36    36    37   ar
    37    37    38   ar
    38    38    39   ar
    39    40    45   ar
    40    40    41   ar
    41    41    42   ar
    42    42    43   ar
    43    43    44   ar
    44    44    45   ar
    45    27    28    2
    46    27    29   am
    47    20    21    1
    48    29    30    1
    49    29    31    1
#	Name:			ZINC17307412
#	Creating user name:	trannguyen
#	Creation time:		Wed Dec  7 14:36:19 2022


#	Modifying user name:	trannguyen
#	Modification time:	Wed Dec  7 14:36:19 2022

@<TRIPOS>MOLECULE
ZINC17307412
 45 49 0 0 0
SMALL
GASTEIGER

@<TRIPOS>ATOM
      1 C          18.3378  -25.5119   18.6807 C.ar    1  UNL1        0.0180
      2 C          18.9701  -25.8724   19.8726 C.ar    1  UNL1        0.0014
      3 C          18.2962  -26.6287   20.8094 C.ar    1  UNL1        0.0013
      4 C          16.9990  -27.0419   20.5678 C.ar    1  UNL1        0.0147
      5 C          16.3631  -26.6933   19.3825 C.ar    1  UNL1        0.0503
      6 C          17.0292  -25.9288   18.4372 C.ar    1  UNL1        0.0159
      7 C          20.9866  -21.5555   12.9610 C.2     1  UNL1        0.2260
      8 O          21.8672  -21.7115   12.1418 O.2     1  UNL1       -0.2749
      9 N          20.5534  -22.6015   13.6922 N.am    1  UNL1       -0.2692
     10 C          19.4922  -22.5524   14.7192 C.3     1  UNL1        0.1368
     11 C          19.7585  -23.7691   15.6112 C.3     1  UNL1        0.1868
     12 C          20.2799  -24.8281   14.6304 C.3     1  UNL1        0.0740
     13 C          21.0551  -23.9814   13.5944 C.3     1  UNL1        0.1552
     14 C          18.4966  -24.2367   16.3414 C.3     1  UNL1        0.0936
     15 C          19.0542  -24.6973   17.6790 C.2     1  UNL1        0.1007
     16 N          20.2638  -24.2535   17.7883 N.2     1  UNL1       -0.0875
     17 O          20.6768  -23.4946   16.6632 O.2     1  UNL1       -0.3829
     18 C          22.5291  -24.0139   13.9062 C.2     1  UNL1        0.2376
     19 O          22.9387  -23.5492   14.9488 O.2     1  UNL1       -0.2736
     20 N          23.3921  -24.5592   13.0262 N.am    1  UNL1       -0.3275
     21 H          23.0596  -24.9364   12.1798 H       1  UNL1        0.1450
     22 H          24.3551  -24.5802   13.2299 H       1  UNL1        0.1450
     23 C          20.3767  -20.1921   13.1613 C.3     1  UNL1        0.0853
     24 C          21.4438  -19.2277   13.6831 C.3     1  UNL1        0.0096
     25 C          21.7181  -19.5209   15.1596 C.3     1  UNL1        0.0005
     26 C          20.1150  -19.7244   17.0651 C.3     1  UNL1        0.0000
     27 C          20.7049  -18.7694   16.0255 C.3     1  UNL1        0.0000
     28 N          15.0502  -27.1146   19.1429 N.am    1  UNL1       -0.2839
     29 C          14.8163  -28.3539   18.6675 C.2     1  UNL1        0.2268
     30 O          15.7335  -29.1366   18.5374 O.2     1  UNL1       -0.2748
     31 H          14.2974  -26.5057   19.3216 H       1  UNL1        0.1549
     32 C          13.4150  -28.7669   18.2975 C.3     1  UNL1        0.0941
     33 C          12.5381  -27.5217   18.1512 C.3     1  UNL1        0.0536
     34 C          11.9602  -27.4749   16.7603 C.ar    1  UNL1       -0.0179
     35 C          12.3825  -26.5066   15.8686 C.ar    1  UNL1       -0.0039
     36 C          11.8562  -26.4669   14.5910 C.ar    1  UNL1       -0.0003
     37 C          10.8997  -27.3887   14.2085 C.ar    1  UNL1       -0.0000
     38 C          10.4733  -28.3534   15.1020 C.ar    1  UNL1       -0.0003
     39 C          11.0037  -28.3967   16.3778 C.ar    1  UNL1       -0.0039
     40 C          11.4188  -27.5745   19.1588 C.ar    1  UNL1       -0.0179
     41 C          10.7071  -26.4289   19.4620 C.ar    1  UNL1       -0.0039
     42 C           9.6769  -26.4783   20.3824 C.ar    1  UNL1       -0.0003
     43 C           9.3657  -27.6712   21.0078 C.ar    1  UNL1       -0.0000
     44 C          10.0811  -28.8157   20.7089 C.ar    1  UNL1       -0.0003
     45 C          11.1075  -28.7673   19.7843 C.ar    1  UNL1       -0.0039
@<TRIPOS>BOND
     1    26    27    1
     2    27    25    1
     3    25    24    1
     4    24    23    1
     5    23     7    1
     6     7     8    2
     7     7     9   am
     8     9    13    1
     9     9    10    1
    10    10    11    1
    11    11    17    1
    12    11    12    1
    13    11    14    1
    14    12    13    1
    15    13    18    1
    16    18    19    2
    17    18    20   am
    18    14    15    1
    19    15    16    2
    20    15     1    1
    21    16    17    1
    22     1     6   ar
    23     1     2   ar
    24     2     3   ar
    25     3     4   ar
    26     4     5   ar
    27     5     6   ar
    28     5    28    1
    29    28    29   am
    30    29    30    2
    31    29    32    1
    32    32    33    1
    33    33    34    1
    34    33    40    1
    35    34    39   ar
    36    34    35   ar
    37    35    36   ar
    38    36    37   ar
    39    37    38   ar
    40    38    39   ar
    41    40    45   ar
    42    40    41   ar
    43    41    42   ar
    44    42    43   ar
    45    43    44   ar
    46    44    45   ar
    47    20    21    1
    48    20    22    1
    49    28    31    1
#	Name:			ZINC17315510
#	Creating user name:	trannguyen
#	Creation time:		Wed Dec  7 14:36:20 2022


#	Modifying user name:	trannguyen
#	Modification time:	Wed Dec  7 14:36:20 2022

@<TRIPOS>MOLECULE
ZINC17315510
 40 43 0 0 0
SMALL
GASTEIGER

@<TRIPOS>ATOM
      1 C          16.1712  -24.9282   13.2856 C.ar    1  UNL1        0.0506
      2 C          17.3212  -25.6207   12.9294 C.ar    1  UNL1        0.0160
      3 C          18.4532  -24.9288   12.5481 C.ar    1  UNL1        0.0159
      4 C          18.4456  -23.5401   12.5312 C.ar    1  UNL1        0.0505
      5 C          17.2973  -22.8476   12.8928 C.ar    1  UNL1        0.0159
      6 C          16.1637  -23.5396   13.2691 C.ar    1  UNL1        0.0160
      7 C          14.8425  -25.9821   14.9557 C.2     1  UNL1        0.2496
      8 O          15.7208  -25.7729   15.7703 O.2     1  UNL1       -0.2698
      9 N          15.0209  -25.6302   13.6669 N.am    1  UNL1       -0.2804
     10 H          14.3426  -25.8667   12.9936 H       1  UNL1        0.1552
     11 C          11.2099  -27.8171   16.1792 C.ar    1  UNL1        0.1722
     12 C          12.2191  -27.5897   17.1053 C.ar    1  UNL1        0.0402
     13 C          13.3973  -26.9930   16.7123 C.ar    1  UNL1        0.0078
     14 C          13.5811  -26.6212   15.3782 C.ar    1  UNL1        0.0569
     15 C          12.5678  -26.8553   14.4448 C.ar    1  UNL1        0.0446
     16 C          11.3888  -27.4534   14.8455 C.ar    1  UNL1        0.1723
     17 O          10.0481  -28.3999   16.5727 O.3     1  UNL1       -0.4724
     18 C           9.2533  -29.9977   18.2024 C.3     1  UNL1        0.0512
     19 C          10.1089  -29.7758   16.9535 C.3     1  UNL1        0.2057
     20 O          10.4004  -27.6822   13.9398 O.3     1  UNL1       -0.4724
     21 C          10.7266  -28.5038   12.8171 C.3     1  UNL1        0.2057
     22 C          10.8494  -29.9602   13.2694 C.3     1  UNL1        0.0512
     23 N          19.5953  -22.8384   12.1491 N.pl3   1  UNL1       -0.2825
     24 H          19.9360  -22.9156   11.2287 H       1  UNL1        0.1551
     25 C          20.2532  -22.0356   13.0660 C.ar    1  UNL1        0.2215
     26 N          20.6192  -20.8131   12.7088 N.ar    1  UNL1       -0.2178
     27 C          21.2461  -20.0141   13.5595 C.ar    1  UNL1        0.0650
     28 C          21.5291  -20.4706   14.8323 C.ar    1  UNL1        0.0492
     29 C          21.1359  -21.7651   15.1784 C.ar    1  UNL1        0.1362
     30 N          20.5057  -22.5108   14.2762 N.ar    1  UNL1       -0.1985
     31 C          21.6508  -18.6240   13.1415 C.3     1  UNL1        0.0523
     32 N          21.3985  -22.2651   16.4445 N.pl3   1  UNL1       -0.2978
     33 H          22.2258  -22.0092   16.9129 H       1  UNL1        0.1536
     34 C          20.4887  -23.1325   17.0561 C.ar    1  UNL1        0.0493
     35 C          20.6711  -24.5068   16.9691 C.ar    1  UNL1        0.0143
     36 C          19.7733  -25.3608   17.5790 C.ar    1  UNL1       -0.0030
     37 C          18.6877  -24.8495   18.2663 C.ar    1  UNL1       -0.0218
     38 C          18.5004  -23.4819   18.3503 C.ar    1  UNL1       -0.0030
     39 C          19.3973  -22.6222   17.7473 C.ar    1  UNL1        0.0143
     40 C          17.7071  -25.7846   18.9256 C.3     1  UNL1        0.0310
@<TRIPOS>BOND
     1    18    19    1
     2    19    17    1
     3    17    11    1
     4    11    16   ar
     5    11    12   ar
     6    12    13   ar
     7    13    14   ar
     8    14    15   ar
     9    14     7    1
    10    15    16   ar
    11    16    20    1
    12    20    21    1
    13    21    22    1
    14     7     8    2
    15     7     9   am
    16     9     1    1
    17     1     6   ar
    18     1     2   ar
    19     2     3   ar
    20     3     4   ar
    21     4     5   ar
    22     4    23    1
    23     5     6   ar
    24    23    25    1
    25    25    30   ar
    26    25    26   ar
    27    26    27   ar
    28    27    28   ar
    29    27    31    1
    30    28    29   ar
    31    29    30   ar
    32    29    32    1
    33    32    34    1
    34    34    39   ar
    35    34    35   ar
    36    35    36   ar
    37    36    37   ar
    38    37    38   ar
    39    37    40    1
    40    38    39   ar
    41     9    10    1
    42    23    24    1
    43    32    33    1
#	Name:			ZINC17352942
#	Creating user name:	trannguyen
#	Creation time:		Wed Dec  7 14:36:20 2022


#	Modifying user name:	trannguyen
#	Modification time:	Wed Dec  7 14:36:20 2022

@<TRIPOS>MOLECULE
ZINC17352942
 37 39 0 0 0
SMALL
GASTEIGER

@<TRIPOS>ATOM
      1 C          20.8986  -23.9070   15.3889 C.3     1  UNL1        0.2045
      2 C          20.3157  -22.5272   15.0109 C.3     1  UNL1        0.2436
      3 C          20.2557  -21.7646   16.3533 C.3     1  UNL1        0.2600
      4 C          20.8095  -22.7737   17.3835 C.3     1  UNL1        0.2522
      5 O          21.6320  -23.6754   16.6113 O.3     1  UNL1       -0.3274
      6 N          19.7121  -23.5046   18.0221 N.ar    1  UNL1       -0.2685
      7 C          18.3902  -23.1683   17.9878 C.ar    1  UNL1        0.1815
      8 N          17.6936  -24.0369   18.6608 N.ar    1  UNL1       -0.2231
      9 C          18.5210  -24.9831   19.1683 C.ar    1  UNL1        0.1051
     10 C          19.8250  -24.6528   18.7646 C.ar    1  UNL1        0.1666
     11 N          20.8355  -25.4329   19.1358 N.ar    1  UNL1       -0.1950
     12 C          20.6195  -26.5081   19.8765 C.ar    1  UNL1        0.2129
     13 N          19.4051  -26.8572   20.2807 N.ar    1  UNL1       -0.2444
     14 C          18.3383  -26.1343   19.9549 C.ar    1  UNL1       -0.0666
     15 N          21.6985  -27.2954   20.2432 N.pl3   1  UNL1       -0.3275
     16 S          16.7310  -26.6043   20.5029 S.3     1  UNL1       -0.7371
     17 H          22.6070  -27.0518   19.9525 H       1  UNL1        0.1452
     18 H          21.5570  -28.0985   20.7947 H       1  UNL1        0.1452
     19 C          21.8387  -24.4070   14.2903 C.3     1  UNL1        0.2416
     20 O          22.9132  -23.4491   14.0996 O.3     1  UNL1       -0.4457
     21 C          23.7266  -23.6466   13.0503 C.2     1  UNL1        0.3170
     22 O          23.9967  -22.7276   12.3139 O.2     1  UNL1       -0.2501
     23 C          24.3031  -25.0146   12.7909 C.3     1  UNL1        0.1096
     24 C          24.7853  -26.3480   10.7338 C.3     1  UNL1        0.0006
     25 C          25.0291  -25.0151   11.4441 C.3     1  UNL1        0.0116
     26 O          21.0921  -20.5787   16.3025 O.3     1  UNL1       -0.4437
     27 C          20.5006  -19.4039   16.5701 C.2     1  UNL1        0.3171
     28 O          19.7626  -19.3019   17.5215 O.2     1  UNL1       -0.2501
     29 C          20.7567  -18.2121   15.6841 C.3     1  UNL1        0.1096
     30 C          22.0501  -18.4306   14.8965 C.3     1  UNL1        0.0116
     31 C          21.7477  -18.3877   13.3973 C.3     1  UNL1        0.0006
     32 O          18.9849  -22.6738   14.4491 O.3     1  UNL1       -0.4456
     33 C          18.8339  -22.3658   13.1513 C.2     1  UNL1        0.3171
     34 O          19.5016  -21.4885   12.6571 O.2     1  UNL1       -0.2501
     35 C          17.8317  -23.1143   12.3110 C.3     1  UNL1        0.1096
     36 C          16.5529  -23.3379   13.1207 C.3     1  UNL1        0.0116
     37 C          16.1275  -24.8032   13.0081 C.3     1  UNL1        0.0006
@<TRIPOS>UNITY_ATOM_ATTR
16 1
charge -1
@<TRIPOS>BOND
     1    24    25    1
     2    25    23    1
     3    23    21    1
     4    21    22    2
     5    21    20    1
     6    20    19    1
     7    19     1    1
     8     1     5    1
     9     1     2    1
    10     2     3    1
    11     2    32    1
    12     3     4    1
    13     3    26    1
    14     4     5    1
    15     4     6    1
    16     6    10   ar
    17     6     7   ar
    18     7     8   ar
    19     8     9   ar
    20     9    14   ar
    21     9    10   ar
    22    10    11   ar
    23    11    12   ar
    24    12    13   ar
    25    12    15    1
    26    13    14   ar
    27    14    16    1
    28    26    27    1
    29    27    28    2
    30    27    29    1
    31    29    30    1
    32    30    31    1
    33    32    33    1
    34    33    34    2
    35    33    35    1
    36    35    36    1
    37    36    37    1
    38    15    17    1
    39    15    18    1
#	Name:			ZINC17361077
#	Creating user name:	trannguyen
#	Creation time:		Wed Dec  7 14:36:20 2022


#	Modifying user name:	trannguyen
#	Modification time:	Wed Dec  7 14:36:20 2022

@<TRIPOS>MOLECULE
ZINC17361077
 34 36 0 0 0
SMALL
GASTEIGER

@<TRIPOS>ATOM
      1 C          21.9894  -21.1240   14.3372 C.3     1  UNL1        0.1190
      2 C          20.5674  -20.1107   16.1742 C.ar    1  UNL1        0.1645
      3 N          20.1163  -18.9250   16.4750 N.ar    1  UNL1       -0.1533
      4 N          20.5554  -18.0307   15.4892 N.ar    1  UNL1       -0.2539
      5 C          21.2871  -18.7335   14.6005 C.ar    1  UNL1        0.1765
      6 S          22.0533  -18.1083   13.2029 S.2     1  UNL1       -0.0114
      7 N          21.3066  -20.0171   15.0115 N.ar    1  UNL1       -0.2911
      8 H          20.3645  -17.0656   15.4522 H       1  UNL1        0.1910
      9 C          19.8869  -23.6643   18.4035 C.ar    1  UNL1        0.1386
     10 C          19.3900  -23.5513   17.1118 C.ar    1  UNL1        0.0370
     11 C          19.6085  -22.4001   16.3857 C.ar    1  UNL1        0.0062
     12 C          20.3307  -21.3476   16.9501 C.ar    1  UNL1        0.0361
     13 C          20.8338  -21.4674   18.2463 C.ar    1  UNL1        0.0062
     14 C          20.6059  -22.6193   18.9686 C.ar    1  UNL1        0.0370
     15 O          19.6695  -24.8003   19.1162 O.3     1  UNL1       -0.4755
     16 C          17.5015  -24.3828   20.0988 C.3     1  UNL1        0.0512
     17 C          18.3254  -25.2820   19.1752 C.3     1  UNL1        0.2055
     18 C          21.4641  -21.2511   12.9059 C.3     1  UNL1        0.1099
     19 C          20.0987  -21.8884   12.9267 C.2     1  UNL1        0.2282
     20 O          19.1141  -21.2067   13.1193 O.2     1  UNL1       -0.2747
     21 N          19.9715  -23.2160   12.7315 N.am    1  UNL1       -0.2815
     22 H          20.7738  -23.7798   12.6448 H       1  UNL1        0.1549
     23 C          18.6973  -23.7935   12.6520 C.ar    1  UNL1        0.0841
     24 C          18.1959  -24.5218   13.7209 C.ar    1  UNL1        0.0135
     25 C          16.9412  -25.0952   13.6379 C.ar    1  UNL1       -0.0214
     26 C          16.1809  -24.9406   12.4933 C.ar    1  UNL1       -0.0011
     27 C          16.6718  -24.2117   11.4260 C.ar    1  UNL1        0.0376
     28 C          17.9288  -23.6338   11.5012 C.ar    1  UNL1        0.1470
     29 O          18.4132  -22.9170   10.4522 O.3     1  UNL1       -0.5043
     30 H          19.2634  -22.5266   10.5043 H       1  UNL1        0.2922
     31 C          16.4004  -25.8913   14.7976 C.3     1  UNL1        0.0190
     32 C          15.0693  -26.5320   14.3998 C.3     1  UNL1        0.0044
     33 C          17.4005  -26.9859   15.1752 C.3     1  UNL1        0.0044
     34 C          16.1826  -24.9643   15.9951 C.3     1  UNL1        0.0044
@<TRIPOS>BOND
     1    16    17    1
     2    17    15    1
     3    15     9    1
     4     9    14   ar
     5     9    10   ar
     6    10    11   ar
     7    11    12   ar
     8    12    13   ar
     9    12     2    1
    10    13    14   ar
    11     2     7   ar
    12     2     3   ar
    13     3     4   ar
    14     4     5   ar
    15     5     6    2
    16     5     7   ar
    17     7     1    1
    18     1    18    1
    19    18    19    1
    20    19    20    2
    21    19    21   am
    22    21    23    1
    23    23    28   ar
    24    23    24   ar
    25    24    25   ar
    26    25    26   ar
    27    25    31    1
    28    26    27   ar
    29    27    28   ar
    30    28    29    1
    31    31    32    1
    32    31    33    1
    33    31    34    1
    34     4     8    1
    35    21    22    1
    36    29    30    1
#	Name:			ZINC17418626
#	Creating user name:	trannguyen
#	Creation time:		Wed Dec  7 14:36:20 2022


#	Modifying user name:	trannguyen
#	Modification time:	Wed Dec  7 14:36:20 2022

@<TRIPOS>MOLECULE
ZINC17418626
 40 43 0 0 0
SMALL
GASTEIGER

@<TRIPOS>ATOM
      1 C          14.8620  -26.7882   15.3463 C.ar    1  UNL1        0.1690
      2 C          13.9075  -27.0970   16.3448 C.ar    1  UNL1        0.0375
      3 C          14.2601  -27.3604   17.6718 C.ar    1  UNL1        0.0030
      4 C          13.2839  -27.6551   18.5785 C.ar    1  UNL1        0.0001
      5 C          11.9434  -27.6870   18.2043 C.ar    1  UNL1        0.0001
      6 C          11.5660  -27.4292   16.9185 C.ar    1  UNL1        0.0030
      7 C          12.5423  -27.1290   15.9638 C.ar    1  UNL1        0.0375
      8 C          12.2298  -26.8501   14.6118 C.ar    1  UNL1        0.1690
      9 N          13.2117  -26.5752   13.7728 N.ar    1  UNL1       -0.1302
     10 N          14.4451  -26.5461   14.1170 N.ar    1  UNL1       -0.1302
     11 N          16.2131  -26.7413   15.6539 N.pl3   1  UNL1       -0.2184
     12 H          16.6887  -27.5647   15.9092 H       1  UNL1        0.1760
     13 C          18.1888  -25.4917   15.8042 C.2     1  UNL1        0.1176
     14 N          16.9016  -25.5224   15.6014 N.2     1  UNL1       -0.1785
     15 C          19.0031  -23.6002   14.5788 C.2     1  UNL1        0.0016
     16 C          18.8851  -24.2587   15.7511 C.2     1  UNL1        0.0222
     17 C          21.0873  -19.9074   14.4200 C.ar    1  UNL1        0.0479
     18 C          20.5346  -20.4423   13.2608 C.ar    1  UNL1        0.0145
     19 C          19.8576  -21.6405   13.3077 C.ar    1  UNL1        0.0013
     20 C          19.7259  -22.3201   14.5236 C.ar    1  UNL1        0.0001
     21 C          20.2788  -21.7759   15.6881 C.ar    1  UNL1        0.0013
     22 C          20.9588  -20.5797   15.6310 C.ar    1  UNL1        0.0145
     23 C          21.9409  -18.0018   13.0874 C.3     1  UNL1        0.1122
     24 N          21.7719  -18.6931   14.3679 N.pl3   1  UNL1       -0.3041
     25 C          22.3220  -18.1091   15.5937 C.3     1  UNL1        0.1122
     26 N          10.9139  -26.8658   14.1752 N.pl3   1  UNL1       -0.2184
     27 H          10.2225  -26.3779   14.6784 H       1  UNL1        0.1760
     28 N          10.5682  -27.5759   13.0180 N.2     1  UNL1       -0.1785
     29 C           9.8398  -28.6530   13.1076 C.2     1  UNL1        0.1176
     30 C           9.3974  -29.1057   14.3754 C.2     1  UNL1        0.0222
     31 C          10.0694  -30.0870   15.0137 C.2     1  UNL1        0.0016
     32 C          11.1482  -30.8097   14.3224 C.ar    1  UNL1        0.0001
     33 C          12.4839  -30.4581   14.5464 C.ar    1  UNL1        0.0013
     34 C          13.4909  -31.1404   13.9007 C.ar    1  UNL1        0.0145
     35 C          13.1813  -32.1711   13.0192 C.ar    1  UNL1        0.0479
     36 C          11.8545  -32.5202   12.7892 C.ar    1  UNL1        0.0145
     37 C          10.8414  -31.8467   13.4346 C.ar    1  UNL1        0.0013
     38 N          14.2043  -32.8565   12.3637 N.pl3   1  UNL1       -0.3041
     39 C          15.2143  -33.5814   13.1388 C.3     1  UNL1        0.1122
     40 C          14.2687  -32.8514   10.9000 C.3     1  UNL1        0.1122
@<TRIPOS>BOND
     1    23    24    1
     2    24    25    1
     3    24    17    1
     4    17    22   ar
     5    17    18   ar
     6    18    19   ar
     7    19    20   ar
     8    20    21   ar
     9    20    15    1
    10    21    22   ar
    11    15    16    2
    12    16    13    1
    13    13    14    2
    14    14    11    1
    15    11     1    1
    16     1    10   ar
    17     1     2   ar
    18     2     7   ar
    19     2     3   ar
    20     3     4   ar
    21     4     5   ar
    22     5     6   ar
    23     6     7   ar
    24     7     8   ar
    25     8     9   ar
    26     8    26    1
    27     9    10   ar
    28    26    28    1
    29    28    29    2
    30    29    30    1
    31    30    31    2
    32    31    32    1
    33    32    37   ar
    34    32    33   ar
    35    33    34   ar
    36    34    35   ar
    37    35    36   ar
    38    35    38    1
    39    36    37   ar
    40    38    39    1
    41    38    40    1
    42    11    12    1
    43    26    27    1
#	Name:			ZINC17654019
#	Creating user name:	trannguyen
#	Creation time:		Wed Dec  7 14:36:19 2022


#	Modifying user name:	trannguyen
#	Modification time:	Wed Dec  7 14:36:19 2022

@<TRIPOS>MOLECULE
ZINC17654019
 47 52 0 0 0
SMALL
GASTEIGER

@<TRIPOS>ATOM
      1 C          20.8657  -27.5835   13.8804 C.3     1  UNL1        0.2045
      2 C          21.4141  -26.2798   14.5017 C.3     1  UNL1        0.2439
      3 C          20.3349  -25.8708   15.5317 C.3     1  UNL1        0.2604
      4 C          19.2619  -26.9751   15.4064 C.3     1  UNL1        0.2522
      5 O          19.4366  -27.5136   14.0778 O.3     1  UNL1       -0.3274
      6 N          17.9214  -26.4025   15.5525 N.ar    1  UNL1       -0.2683
      7 C          17.0475  -26.6432   16.5729 C.ar    1  UNL1        0.1817
      8 N          15.9513  -25.9690   16.3829 N.ar    1  UNL1       -0.2174
      9 C          16.0553  -25.2578   15.2340 C.ar    1  UNL1        0.1728
     10 C          17.3166  -25.5278   14.6910 C.ar    1  UNL1        0.1721
     11 N          17.6819  -24.9472   13.5421 N.ar    1  UNL1       -0.1963
     12 C          16.8752  -24.1242   12.9102 C.ar    1  UNL1        0.1950
     13 N          15.6351  -23.8219   13.3888 N.ar    1  UNL1       -0.2934
     14 C          15.1970  -24.3701   14.5437 C.ar    1  UNL1        0.2803
     15 O          14.0877  -24.1099   14.9774 O.2     1  UNL1       -0.2654
     16 N          17.2933  -23.5525   11.7349 N.pl3   1  UNL1       -0.3289
     17 H          15.0558  -23.2011   12.8905 H       1  UNL1        0.1716
     18 H          18.1863  -23.7609   11.3765 H       1  UNL1        0.1451
     19 H          16.7004  -22.9338   11.2501 H       1  UNL1        0.1451
     20 C          21.1949  -27.6415   12.3874 C.3     1  UNL1        0.2420
     21 O          22.4055  -28.4184   12.1886 O.3     1  UNL1       -0.4426
     22 C          22.6465  -28.8667   10.9413 C.2     1  UNL1        0.3413
     23 O          22.0786  -29.8595   10.5324 O.2     1  UNL1       -0.2449
     24 C          25.3931  -26.8096    8.4398 C.ar    1  UNL1        0.0000
     25 C          25.1164  -26.3229    9.7052 C.ar    1  UNL1        0.0002
     26 C          24.2253  -26.9862   10.5229 C.ar    1  UNL1        0.0064
     27 C          23.6016  -28.1508   10.0709 C.ar    1  UNL1        0.0756
     28 C          23.8891  -28.6389    8.7948 C.ar    1  UNL1        0.0064
     29 C          24.7790  -27.9633    7.9857 C.ar    1  UNL1        0.0002
     30 O          20.8901  -25.8507   16.8732 O.3     1  UNL1       -0.4406
     31 C          20.6714  -24.7439   17.6092 C.2     1  UNL1        0.3413
     32 O          21.4991  -23.8551   17.6300 O.2     1  UNL1       -0.2449
     33 C          19.4250  -24.6110   18.3909 C.ar    1  UNL1        0.0756
     34 C          18.4709  -23.6566   18.0328 C.ar    1  UNL1        0.0064
     35 C          17.3069  -23.5415   18.7640 C.ar    1  UNL1        0.0002
     36 C          17.0887  -24.3617   19.8568 C.ar    1  UNL1        0.0000
     37 C          18.0325  -25.3058   20.2208 C.ar    1  UNL1        0.0002
     38 C          19.1984  -25.4354   19.4949 C.ar    1  UNL1        0.0064
     39 O          21.5631  -25.2547   13.4842 O.3     1  UNL1       -0.4425
     40 C          22.2878  -24.1677   13.8128 C.2     1  UNL1        0.3413
     41 O          23.4545  -24.2883   14.1287 O.2     1  UNL1       -0.2449
     42 C          21.6636  -22.8290   13.7890 C.ar    1  UNL1        0.0756
     43 C          20.4804  -22.6193   13.0777 C.ar    1  UNL1        0.0064
     44 C          19.9001  -21.3680   13.0641 C.ar    1  UNL1        0.0002
     45 C          20.4936  -20.3193   13.7442 C.ar    1  UNL1        0.0000
     46 C          21.6690  -20.5187   14.4463 C.ar    1  UNL1        0.0002
     47 C          22.2570  -21.7663   14.4732 C.ar    1  UNL1        0.0064
@<TRIPOS>BOND
     1    24    29   ar
     2    24    25   ar
     3    25    26   ar
     4    26    27   ar
     5    27    28   ar
     6    27    22    1
     7    28    29   ar
     8    22    23    2
     9    22    21    1
    10    21    20    1
    11    20     1    1
    12     1     5    1
    13     1     2    1
    14     2     3    1
    15     2    39    1
    16     3     4    1
    17     3    30    1
    18     4     5    1
    19     4     6    1
    20     6    10   ar
    21     6     7   ar
    22     7     8   ar
    23     8     9   ar
    24     9    14   ar
    25     9    10   ar
    26    10    11   ar
    27    11    12   ar
    28    12    13   ar
    29    12    16    1
    30    13    14   ar
    31    14    15    2
    32    30    31    1
    33    31    32    2
    34    31    33    1
    35    33    38   ar
    36    33    34   ar
    37    34    35   ar
    38    35    36   ar
    39    36    37   ar
    40    37    38   ar
    41    39    40    1
    42    40    41    2
    43    40    42    1
    44    42    47   ar
    45    42    43   ar
    46    43    44   ar
    47    44    45   ar
    48    45    46   ar
    49    46    47   ar
    50    13    17    1
    51    16    18    1
    52    16    19    1
#	Name:			ZINC17965722
#	Creating user name:	trannguyen
#	Creation time:		Wed Dec  7 14:36:19 2022


#	Modifying user name:	trannguyen
#	Modification time:	Wed Dec  7 14:36:19 2022

@<TRIPOS>MOLECULE
ZINC17965722
 40 41 0 0 0
SMALL
GASTEIGER

@<TRIPOS>ATOM
      1 N          20.8372  -24.0864   14.5368 N.am    1  UNL1       -0.2525
      2 C          20.8012  -23.8229   15.8597 C.2     1  UNL1        0.2300
      3 O          21.7424  -23.2755   16.3951 O.2     1  UNL1       -0.2745
      4 C          22.0077  -23.8189   13.7958 C.ar    1  UNL1        0.1403
      5 C          22.9020  -24.8294   13.5073 C.ar    1  UNL1        0.1281
      6 N          24.0340  -24.5375   12.7824 N.ar    1  UNL1       -0.2689
      7 C          24.2666  -23.2819   12.3593 C.ar    1  UNL1        0.3314
      8 O          25.2730  -23.0444   11.7195 O.2     1  UNL1       -0.2464
      9 N          23.4067  -22.2843   12.6314 N.ar    1  UNL1       -0.2733
     10 C          22.2804  -22.5179   13.3331 C.ar    1  UNL1        0.2774
     11 O          21.5048  -21.6071   13.5698 O.2     1  UNL1       -0.2656
     12 N          22.6645  -26.1122   13.9394 N.pl3   1  UNL1       -0.3427
     13 H          23.6024  -21.3731   12.3143 H       1  UNL1        0.1735
     14 H          21.8524  -26.3146   14.4578 H       1  UNL1        0.1437
     15 H          23.3065  -26.8288   13.7305 H       1  UNL1        0.1437
     16 C          24.9920  -25.6008   12.4689 C.3     1  UNL1        0.1117
     17 C          24.4469  -26.4573   11.3244 C.3     1  UNL1        0.0247
     18 C          25.1660  -26.0897   10.0250 C.3     1  UNL1        0.0020
     19 C          24.6233  -26.9486    8.8811 C.3     1  UNL1        0.0001
     20 C          19.6589  -24.6445   13.8686 C.3     1  UNL1        0.0984
     21 C          18.7451  -23.5059   13.4108 C.3     1  UNL1        0.0219
     22 C          18.8787  -23.3219   11.8978 C.3     1  UNL1        0.0018
     23 C          16.4237  -23.7275   12.1234 C.3     1  UNL1        0.0000
     24 C          17.6365  -23.8848   11.2041 C.3     1  UNL1        0.0001
     25 C          19.5920  -24.2087   16.6721 C.3     1  UNL1        0.0952
     26 C          19.9431  -24.1665   18.1607 C.3     1  UNL1        0.0949
     27 C          20.8386  -25.3305   18.4987 C.2     1  UNL1        0.2266
     28 O          21.8959  -25.1388   19.0613 O.2     1  UNL1       -0.2748
     29 N          20.4644  -26.5845   18.1762 N.am    1  UNL1       -0.2839
     30 H          19.6458  -26.7341   17.6500 H       1  UNL1        0.1549
     31 C          21.2395  -27.6738   18.5891 C.ar    1  UNL1        0.0503
     32 C          22.2425  -28.1666   17.7646 C.ar    1  UNL1        0.0143
     33 C          23.0095  -29.2383   18.1775 C.ar    1  UNL1       -0.0030
     34 C          22.7725  -29.8277   19.4057 C.ar    1  UNL1       -0.0224
     35 C          21.7705  -29.3432   20.2265 C.ar    1  UNL1       -0.0030
     36 C          21.0037  -28.2682   19.8218 C.ar    1  UNL1        0.0143
     37 C          23.6076  -31.0006   19.8506 C.3     1  UNL1        0.0223
     38 C          24.4049  -31.5393   18.6610 C.3     1  UNL1        0.0047
     39 C          22.6933  -32.1013   20.3922 C.3     1  UNL1        0.0044
     40 C          22.1727  -32.9495   19.2301 C.3     1  UNL1        0.0003
@<TRIPOS>BOND
     1    23    24    1
     2    24    22    1
     3    22    21    1
     4    21    20    1
     5    20     1    1
     6     1     4    1
     7     1     2   am
     8     4    10   ar
     9     4     5   ar
    10     5     6   ar
    11     5    12    1
    12     6     7   ar
    13     6    16    1
    14     7     8    2
    15     7     9   ar
    16     9    10   ar
    17    10    11    2
    18    16    17    1
    19    17    18    1
    20    18    19    1
    21     2     3    2
    22     2    25    1
    23    25    26    1
    24    26    27    1
    25    27    28    2
    26    27    29   am
    27    29    31    1
    28    31    36   ar
    29    31    32   ar
    30    32    33   ar
    31    33    34   ar
    32    34    35   ar
    33    34    37    1
    34    35    36   ar
    35    37    38    1
    36    37    39    1
    37    39    40    1
    38     9    13    1
    39    12    14    1
    40    12    15    1
    41    29    30    1
#	Name:			ZINC18052854
#	Creating user name:	trannguyen
#	Creation time:		Wed Dec  7 14:36:20 2022


#	Modifying user name:	trannguyen
#	Modification time:	Wed Dec  7 14:36:20 2022

@<TRIPOS>MOLECULE
ZINC18052854
 38 41 0 0 0
SMALL
GASTEIGER

@<TRIPOS>ATOM
      1 C          17.8237  -27.0626   16.0029 C.2     1  UNL1        0.2611
      2 O          18.6531  -26.3882   16.5758 O.2     1  UNL1       -0.2715
      3 N          17.4331  -26.7344   14.7554 N.am    1  UNL1       -0.2322
      4 H          16.7598  -27.2818   14.2904 H       1  UNL1        0.1729
      5 N          17.9852  -25.6142   14.1205 N.am    1  UNL1       -0.2309
      6 C          17.2068  -24.8186   13.3605 C.2     1  UNL1        0.2781
      7 O          16.0284  -25.0723   13.2262 O.2     1  UNL1       -0.2697
      8 H          18.9417  -25.4082   14.2294 H       1  UNL1        0.1729
      9 C          17.8006  -23.6135   12.6776 C.3     1  UNL1        0.2426
     10 C          17.4965  -23.6749   11.1794 C.3     1  UNL1        0.0575
     11 O          19.2157  -23.6024   12.8763 O.3     1  UNL1       -0.4699
     12 C          19.7262  -22.5867   13.6207 C.ar    1  UNL1        0.1391
     13 C          19.7074  -22.6767   15.0162 C.ar    1  UNL1        0.0369
     14 C          20.2108  -21.6767   15.7880 C.ar    1  UNL1        0.0031
     15 C          20.7587  -20.5342   15.1788 C.ar    1  UNL1        0.0002
     16 C          21.2870  -19.4821   15.9461 C.ar    1  UNL1        0.0000
     17 C          21.8088  -18.3901   15.3234 C.ar    1  UNL1        0.0000
     18 C          21.8282  -18.2978   13.9329 C.ar    1  UNL1        0.0000
     19 C          21.3257  -19.2968   13.1574 C.ar    1  UNL1        0.0001
     20 C          20.7784  -20.4404   13.7645 C.ar    1  UNL1        0.0030
     21 C          20.2504  -21.4910   12.9963 C.ar    1  UNL1        0.0369
     22 C          17.2299  -28.2675   16.6859 C.3     1  UNL1        0.1958
     23 C          14.9347  -27.5836   17.5148 C.ar    1  UNL1        0.1649
     24 N          14.4108  -27.2159   18.6508 N.ar    1  UNL1       -0.1533
     25 N          15.4277  -27.2074   19.6151 N.ar    1  UNL1       -0.2539
     26 C          16.5685  -27.5900   19.0054 C.ar    1  UNL1        0.1769
     27 S          18.1057  -27.7448   19.7428 S.2     1  UNL1       -0.0114
     28 N          16.2794  -27.8290   17.7107 N.ar    1  UNL1       -0.2825
     29 H          15.3277  -26.9663   20.5644 H       1  UNL1        0.1910
     30 C          12.8519  -27.9724   13.8308 C.ar    1  UNL1        0.1386
     31 C          13.3470  -29.1020   14.4691 C.ar    1  UNL1        0.0370
     32 C          14.0231  -28.9798   15.6641 C.ar    1  UNL1        0.0062
     33 C          14.2096  -27.7190   16.2326 C.ar    1  UNL1        0.0361
     34 C          13.7052  -26.5867   15.5913 C.ar    1  UNL1        0.0062
     35 C          13.0354  -26.7161   14.3935 C.ar    1  UNL1        0.0370
     36 O          12.1859  -28.0967   12.6531 O.3     1  UNL1       -0.4755
     37 C           9.7945  -28.0520   12.9986 C.3     1  UNL1        0.0512
     38 C          11.0123  -28.9118   12.6544 C.3     1  UNL1        0.2055
@<TRIPOS>BOND
     1    37    38    1
     2    38    36    1
     3    36    30    1
     4    30    35   ar
     5    30    31   ar
     6    31    32   ar
     7    32    33   ar
     8    33    34   ar
     9    33    23    1
    10    34    35   ar
    11    23    28   ar
    12    23    24   ar
    13    24    25   ar
    14    25    26   ar
    15    26    27    2
    16    26    28   ar
    17    28    22    1
    18    22     1    1
    19     1     2    2
    20     1     3   am
    21     3     5    1
    22     5     6   am
    23     6     7    2
    24     6     9    1
    25     9    10    1
    26     9    11    1
    27    11    12    1
    28    12    21   ar
    29    12    13   ar
    30    13    14   ar
    31    14    15   ar
    32    15    20   ar
    33    15    16   ar
    34    16    17   ar
    35    17    18   ar
    36    18    19   ar
    37    19    20   ar
    38    20    21   ar
    39    25    29    1
    40     3     4    1
    41     5     8    1
#	Name:			ZINC18181130
#	Creating user name:	trannguyen
#	Creation time:		Wed Dec  7 14:36:20 2022


#	Modifying user name:	trannguyen
#	Modification time:	Wed Dec  7 14:36:20 2022

@<TRIPOS>MOLECULE
ZINC18181130
 42 44 0 0 0
SMALL
GASTEIGER

@<TRIPOS>ATOM
      1 C          16.1504  -24.1799   12.9414 C.ar    1  UNL1       -0.0002
      2 C          15.4156  -24.0814   14.1084 C.ar    1  UNL1       -0.0002
      3 C          15.7826  -24.8157   15.2203 C.ar    1  UNL1       -0.0009
      4 C          16.8845  -25.6489   15.1656 C.ar    1  UNL1        0.0208
      5 C          17.6192  -25.7475   13.9990 C.ar    1  UNL1        0.0208
      6 C          17.2552  -25.0088   12.8884 C.ar    1  UNL1       -0.0009
      7 C          18.8206  -26.6552   13.9396 C.3     1  UNL1        0.2352
      8 O          20.0129  -25.8644   13.6913 O.3     1  UNL1       -0.4400
      9 C          20.6016  -25.2925   14.7610 C.2     1  UNL1        0.3513
     10 O          20.7268  -25.9206   15.7943 O.2     1  UNL1       -0.2441
     11 C          21.0919  -23.9095   14.6778 C.2     1  UNL1        0.1438
     12 C          20.2108  -22.8568   14.8063 C.2     1  UNL1        0.0169
     13 C          20.6660  -21.4871   14.5610 C.ar    1  UNL1        0.0041
     14 C          20.5438  -20.9233   13.2826 C.ar    1  UNL1        0.0033
     15 C          20.9773  -19.6373   13.0545 C.ar    1  UNL1        0.0398
     16 C          21.5262  -18.8907   14.0902 C.ar    1  UNL1        0.1675
     17 C          21.6522  -19.4439   15.3652 C.ar    1  UNL1        0.1675
     18 C          21.2256  -20.7342   15.6035 C.ar    1  UNL1        0.0398
     19 O          22.1953  -18.7106   16.3734 O.3     1  UNL1       -0.5029
     20 O          21.9470  -17.6209   13.8594 O.3     1  UNL1       -0.5029
     21 H          22.4851  -17.8343   16.2119 H       1  UNL1        0.2923
     22 H          21.8633  -17.2478   13.0039 H       1  UNL1        0.2923
     23 C          22.4847  -23.6553   14.4634 C.1     1  UNL1        0.1070
     24 N          23.5897  -23.4536   14.2932 N.1     1  UNL1       -0.1906
     25 C          17.2850  -26.4492   16.3781 C.3     1  UNL1        0.2352
     26 O          16.1860  -26.4732   17.3268 O.3     1  UNL1       -0.4400
     27 C          16.4544  -26.9408   18.5626 C.2     1  UNL1        0.3513
     28 O          17.0891  -27.9685   18.6991 O.2     1  UNL1       -0.2441
     29 C          15.9795  -26.2079   19.7447 C.2     1  UNL1        0.1438
     30 C          16.6611  -25.0930   20.1844 C.2     1  UNL1        0.0169
     31 C          17.9782  -24.7743   19.6303 C.ar    1  UNL1        0.0041
     32 C          18.1103  -23.7646   18.6659 C.ar    1  UNL1        0.0033
     33 C          19.3506  -23.4647   18.1505 C.ar    1  UNL1        0.0398
     34 C          20.4724  -24.1662   18.5758 C.ar    1  UNL1        0.1675
     35 C          20.3495  -25.1759   19.5311 C.ar    1  UNL1        0.1675
     36 C          19.1114  -25.4814   20.0579 C.ar    1  UNL1        0.0398
     37 O          21.4507  -25.8590   19.9434 O.3     1  UNL1       -0.5029
     38 O          21.6921  -23.8683   18.0596 O.3     1  UNL1       -0.5029
     39 H          22.2917  -25.6518   19.5858 H       1  UNL1        0.2923
     40 H          21.7766  -23.1906   17.4181 H       1  UNL1        0.2923
     41 C          14.8090  -26.6521   20.4399 C.1     1  UNL1        0.1070
     42 N          13.8804  -27.0043   20.9915 N.1     1  UNL1       -0.1906
@<TRIPOS>BOND
     1     1     6   ar
     2     1     2   ar
     3     2     3   ar
     4     3     4   ar
     5     4     5   ar
     6     4    25    1
     7     5     6   ar
     8     5     7    1
     9     7     8    1
    10     8     9    1
    11     9    10    2
    12     9    11    1
    13    11    12    2
    14    11    23    1
    15    12    13    1
    16    13    18   ar
    17    13    14   ar
    18    14    15   ar
    19    15    16   ar
    20    16    17   ar
    21    16    20    1
    22    17    18   ar
    23    17    19    1
    24    23    24    3
    25    25    26    1
    26    26    27    1
    27    27    28    2
    28    27    29    1
    29    29    30    2
    30    29    41    1
    31    30    31    1
    32    31    36   ar
    33    31    32   ar
    34    32    33   ar
    35    33    34   ar
    36    34    35   ar
    37    34    38    1
    38    35    36   ar
    39    35    37    1
    40    41    42    3
    41    19    21    1
    42    20    22    1
    43    37    39    1
    44    38    40    1
#	Name:			ZINC18773252
#	Creating user name:	trannguyen
#	Creation time:		Wed Dec  7 14:36:19 2022


#	Modifying user name:	trannguyen
#	Modification time:	Wed Dec  7 14:36:19 2022

@<TRIPOS>MOLECULE
ZINC18773252
 36 39 0 0 0
SMALL
GASTEIGER

@<TRIPOS>ATOM
      1 C          16.3536  -25.3037   14.1393 C.3     1  UNL1        0.1297
      2 C          17.5024  -24.3452   14.3198 C.ar    1  UNL1        0.1549
      3 N          18.2280  -24.4267   15.4195 N.ar    1  UNL1       -0.2153
      4 C          19.2525  -23.6021   15.6236 C.ar    1  UNL1        0.1315
      5 C          19.5413  -22.6472   14.6427 C.ar    1  UNL1        0.0936
      6 C          20.5478  -21.5838   14.4779 C.ar    1  UNL1        0.1131
      7 C          20.2715  -21.0004   13.2789 C.ar    1  UNL1        0.1315
      8 O          19.2199  -21.6065   12.7123 O.2     1  UNL1       -0.4401
      9 C          18.7451  -22.5951   13.4899 C.ar    1  UNL1        0.2332
     10 N          17.7414  -23.4614   13.3745 N.ar    1  UNL1       -0.1954
     11 C          21.0363  -19.8493   12.6780 C.3     1  UNL1        0.0728
     12 N          20.0131  -23.6872   16.7766 N.pl3   1  UNL1       -0.3425
     13 H          19.7989  -24.3640   17.4588 H       1  UNL1        0.1437
     14 H          20.7684  -23.0709   16.9146 H       1  UNL1        0.1437
     15 C          21.6216  -21.2238   15.4147 C.2     1  UNL1        0.3441
     16 O          22.7846  -21.3619   15.0884 O.2     1  UNL1       -0.2448
     17 O          21.3170  -20.7406   16.6358 O.3     1  UNL1       -0.4454
     18 C          20.3625  -19.6479   16.6931 C.3     1  UNL1        0.2089
     19 C          21.0180  -18.3699   16.1660 C.3     1  UNL1        0.0513
     20 S          15.2200  -25.1610   15.5484 S.3     1  UNL1       -0.0784
     21 C          11.6605  -27.2284   13.8955 C.ar    1  UNL1        0.1866
     22 N          11.4353  -26.0745   14.4932 N.ar    1  UNL1       -0.1249
     23 N          12.4842  -25.3674   15.0340 N.ar    1  UNL1       -0.1331
     24 C          13.7106  -25.8471   14.9522 C.ar    1  UNL1        0.1610
     25 S          13.4324  -27.3744   14.0685 S.2     1  UNL1       -0.0242
     26 N          10.7602  -28.0964   13.2885 N.pl3   1  UNL1       -0.2890
     27 H          10.0275  -27.7389   12.7367 H       1  UNL1        0.1542
     28 C          10.2481  -30.1169   14.5179 C.ar    1  UNL1        0.1518
     29 C          10.3825  -31.4856   14.6825 C.ar    1  UNL1        0.0382
     30 C          11.1650  -32.2143   13.8055 C.ar    1  UNL1        0.0032
     31 C          11.8118  -31.5811   12.7603 C.ar    1  UNL1        0.0015
     32 C          11.6795  -30.2165   12.5864 C.ar    1  UNL1        0.0177
     33 C          10.8956  -29.4788   13.4620 C.ar    1  UNL1        0.0842
     34 O           9.4830  -29.3984   15.3827 O.3     1  UNL1       -0.4742
     35 C           8.9768  -29.4671   17.7448 C.3     1  UNL1        0.0512
     36 C          10.0287  -29.1505   16.6799 C.3     1  UNL1        0.2056
@<TRIPOS>BOND
     1    35    36    1
     2    36    34    1
     3    34    28    1
     4    28    33   ar
     5    28    29   ar
     6    29    30   ar
     7    30    31   ar
     8    31    32   ar
     9    32    33   ar
    10    33    26    1
    11    26    21    1
    12    21    25   ar
    13    21    22   ar
    14    22    23   ar
    15    23    24   ar
    16    24    25   ar
    17    24    20    1
    18    20     1    1
    19     1     2    1
    20     2    10   ar
    21     2     3   ar
    22     3     4   ar
    23     4     5   ar
    24     4    12    1
    25     5     9   ar
    26     5     6   ar
    27     6     7   ar
    28     6    15    1
    29     7     8   ar
    30     7    11    1
    31     8     9   ar
    32     9    10   ar
    33    15    16    2
    34    15    17    1
    35    17    18    1
    36    18    19    1
    37    26    27    1
    38    12    13    1
    39    12    14    1
#	Name:			ZINC18953806
#	Creating user name:	trannguyen
#	Creation time:		Wed Dec  7 14:36:19 2022


#	Modifying user name:	trannguyen
#	Modification time:	Wed Dec  7 14:36:19 2022

@<TRIPOS>MOLECULE
ZINC18953806
 37 40 0 0 0
SMALL
GASTEIGER

@<TRIPOS>ATOM
      1 C          21.6099  -23.7633   14.7233 C.2     1  UNL1        0.0771
      2 C          21.0830  -22.6196   14.2353 C.2     1  UNL1        0.0914
      3 C          20.3711  -21.7004   15.2071 C.3     1  UNL1        0.1606
      4 N          20.3118  -22.1331   16.6133 N.am    1  UNL1       -0.2800
      5 C          20.8865  -23.3052   16.9486 C.2     1  UNL1        0.3048
      6 O          20.8435  -23.6711   18.1070 O.2     1  UNL1       -0.2525
      7 N          21.4994  -24.0820   16.0465 N.am    1  UNL1       -0.2687
      8 H          19.8629  -21.5794   17.2925 H       1  UNL1        0.1516
      9 H          21.8923  -24.9306   16.3544 H       1  UNL1        0.1562
     10 C          21.0545  -20.3580   15.1624 C.ar    1  UNL1        0.1453
     11 C          20.7632  -19.3549   14.3149 C.ar    1  UNL1        0.0382
     12 C          21.6422  -18.2910   14.6221 C.ar    1  UNL1        0.0435
     13 C          22.4181  -18.7077   15.6388 C.ar    1  UNL1        0.1792
     14 O          22.0537  -19.9583   15.9658 O.2     1  UNL1       -0.4527
     15 C          21.1926  -22.2906   12.8640 C.2     1  UNL1        0.3402
     16 O          22.2768  -22.0043   12.3917 O.2     1  UNL1       -0.2451
     17 O          20.0946  -22.2942   12.0795 O.3     1  UNL1       -0.4456
     18 C          19.0820  -23.2550   12.3851 C.3     1  UNL1        0.2089
     19 C          18.2668  -23.5550   11.1256 C.3     1  UNL1        0.0513
     20 C          22.3262  -24.7063   13.7911 C.3     1  UNL1        0.2498
     21 O          21.7957  -26.0476   13.9576 O.3     1  UNL1       -0.4380
     22 C          21.3288  -26.6624   12.8531 C.2     1  UNL1        0.3612
     23 O          20.1953  -26.4480   12.4717 O.2     1  UNL1       -0.2431
     24 N          24.1008  -27.9132   10.8794 N.ar    1  UNL1       -0.2165
     25 C          23.9029  -29.2328   10.6821 C.ar    1  UNL1        0.2763
     26 O          24.7002  -29.8932   10.0417 O.2     1  UNL1       -0.2655
     27 C          22.7023  -29.8545   11.2578 C.ar    1  UNL1        0.0593
     28 C          22.4071  -31.2063   11.1109 C.ar    1  UNL1        0.0048
     29 C          21.2590  -31.7129   11.6820 C.ar    1  UNL1        0.0002
     30 C          20.4002  -30.8901   12.3988 C.ar    1  UNL1        0.0001
     31 C          20.6749  -29.5479   12.5551 C.ar    1  UNL1        0.0019
     32 C          21.8275  -29.0165   11.9873 C.ar    1  UNL1        0.0304
     33 C          22.1938  -27.5958   12.1072 C.ar    1  UNL1        0.1764
     34 N          23.2982  -27.1699   11.5426 N.ar    1  UNL1       -0.1602
     35 C          25.2992  -27.2982   10.3034 C.3     1  UNL1        0.1307
     36 C          24.8588  -26.9497    7.8689 C.3     1  UNL1        0.0021
     37 C          24.8879  -26.2757    9.2421 C.3     1  UNL1        0.0265
@<TRIPOS>BOND
     1    36    37    1
     2    37    35    1
     3    35    24    1
     4    24    34   ar
     5    24    25   ar
     6    25    26    2
     7    25    27   ar
     8    27    32   ar
     9    27    28   ar
    10    28    29   ar
    11    29    30   ar
    12    30    31   ar
    13    31    32   ar
    14    32    33   ar
    15    33    34   ar
    16    33    22    1
    17    22    23    2
    18    22    21    1
    19    21    20    1
    20    20     1    1
    21     1     7    1
    22     1     2    2
    23     2     3    1
    24     2    15    1
    25     3     4    1
    26     3    10    1
    27     4     5   am
    28     5     6    2
    29     5     7   am
    30    10    14   ar
    31    10    11   ar
    32    11    12   ar
    33    12    13   ar
    34    13    14   ar
    35    15    16    2
    36    15    17    1
    37    17    18    1
    38    18    19    1
    39     4     8    1
    40     7     9    1
#	Name:			ZINC18980873
#	Creating user name:	trannguyen
#	Creation time:		Wed Dec  7 14:36:19 2022


#	Modifying user name:	trannguyen
#	Modification time:	Wed Dec  7 14:36:19 2022

@<TRIPOS>MOLECULE
ZINC18980873
 32 33 0 0 0
SMALL
GASTEIGER

@<TRIPOS>ATOM
      1 C          20.5102  -20.5055   15.6839 C.ar    1  UNL1        0.0568
      2 C          20.6696  -19.2643   16.2863 C.ar    1  UNL1        0.0149
      3 C          21.2027  -18.2117   15.5705 C.ar    1  UNL1        0.0013
      4 C          21.5873  -18.3841   14.2502 C.ar    1  UNL1        0.0003
      5 C          21.4418  -19.6093   13.6373 C.ar    1  UNL1        0.0077
      6 C          20.9039  -20.6852   14.3488 C.ar    1  UNL1        0.0891
      7 C          20.5669  -21.9923   17.5319 C.2     1  UNL1        0.2495
      8 O          21.5247  -21.3896   17.9759 O.2     1  UNL1       -0.2698
      9 N          19.9678  -21.5669   16.4021 N.am    1  UNL1       -0.2802
     10 H          19.1463  -22.0070   16.0848 H       1  UNL1        0.1552
     11 C          16.8603  -24.3848   19.8632 C.3     1  UNL1        0.0310
     12 C          18.2782  -24.3469   19.3542 C.ar    1  UNL1       -0.0217
     13 C          19.1087  -25.4377   19.5425 C.ar    1  UNL1       -0.0043
     14 C          20.4116  -25.4111   19.0783 C.ar    1  UNL1       -0.0002
     15 C          20.8917  -24.2951   18.4244 C.ar    1  UNL1        0.0045
     16 C          20.0594  -23.1915   18.2311 C.ar    1  UNL1        0.0534
     17 C          18.7469  -23.2230   18.7064 C.ar    1  UNL1        0.0003
     18 C          20.7454  -21.9986   13.6994 C.2     1  UNL1        0.3429
     19 O          20.1111  -22.0936   12.6673 O.2     1  UNL1       -0.2448
     20 O          21.3041  -23.0943   14.2502 O.3     1  UNL1       -0.4353
     21 C          20.9392  -24.3783   13.6788 C.3     1  UNL1        0.2927
     22 C          20.2413  -25.2122   14.7221 C.2     1  UNL1        0.2671
     23 O          20.8457  -26.0903   15.3006 O.2     1  UNL1       -0.2711
     24 N          18.9454  -24.9821   15.0124 N.am    1  UNL1       -0.3012
     25 H          18.4548  -24.2694   14.5429 H       1  UNL1        0.1495
     26 C          18.2669  -25.7928   16.0267 C.3     1  UNL1        0.0921
     27 C          16.7550  -25.7335   15.7994 C.3     1  UNL1        0.0533
     28 C          16.4484  -24.7598   14.6597 C.3     1  UNL1        0.1438
     29 O          16.4545  -25.4646   13.4166 O.3     1  UNL1       -0.3562
     30 C          16.6015  -24.6223   12.2716 C.3     1  UNL1        0.1154
     31 C          16.7302  -23.1660   12.7229 C.3     1  UNL1        0.0320
     32 C          17.8568  -25.0291   11.4971 C.3     1  UNL1        0.0320
@<TRIPOS>BOND
     1    11    12    1
     2    12    17   ar
     3    12    13   ar
     4    13    14   ar
     5    14    15   ar
     6    15    16   ar
     7    16    17   ar
     8    16     7    1
     9     7     8    2
    10     7     9   am
    11     9     1    1
    12     1     6   ar
    13     1     2   ar
    14     2     3   ar
    15     3     4   ar
    16     4     5   ar
    17     5     6   ar
    18     6    18    1
    19    18    19    2
    20    18    20    1
    21    20    21    1
    22    21    22    1
    23    22    23    2
    24    22    24   am
    25    24    26    1
    26    26    27    1
    27    27    28    1
    28    28    29    1
    29    29    30    1
    30    30    31    1
    31    30    32    1
    32     9    10    1
    33    24    25    1
#	Name:			ZINC19314297
#	Creating user name:	trannguyen
#	Creation time:		Wed Dec  7 14:36:20 2022


#	Modifying user name:	trannguyen
#	Modification time:	Wed Dec  7 14:36:20 2022

@<TRIPOS>MOLECULE
ZINC19314297
 38 40 0 0 0
SMALL
GASTEIGER

@<TRIPOS>ATOM
      1 C          20.2269  -22.8182   13.3823 C.3     1  UNL1        0.1783
      2 N          20.9961  -23.9966   12.9751 N.am    1  UNL1       -0.2621
      3 C          21.8670  -24.5627   13.8340 C.2     1  UNL1        0.4023
      4 O          22.0143  -24.0955   14.9460 O.2     1  UNL1       -0.2264
      5 H          20.8769  -24.3751   12.0741 H       1  UNL1        0.1532
      6 O          22.5780  -25.6424   13.4577 O.3     1  UNL1       -0.4297
      7 C          23.9337  -25.4096   12.9928 C.3     1  UNL1        0.2367
      8 C          24.3687  -26.5572   12.1181 C.ar    1  UNL1        0.0213
      9 C          23.4237  -27.3972   11.5593 C.ar    1  UNL1       -0.0007
     10 C          23.8224  -28.4468   10.7531 C.ar    1  UNL1       -0.0002
     11 C          25.1667  -28.6626   10.5139 C.ar    1  UNL1       -0.0000
     12 C          26.1121  -27.8260   11.0773 C.ar    1  UNL1       -0.0002
     13 C          25.7130  -26.7732   11.8793 C.ar    1  UNL1       -0.0007
     14 C          18.9712  -22.7272   12.5543 C.2     1  UNL1        0.3355
     15 O          19.0311  -22.8334   11.3522 O.2     1  UNL1       -0.2483
     16 O          17.7860  -22.5280   13.1520 O.3     1  UNL1       -0.4433
     17 C          16.7435  -23.5044   12.8909 C.3     1  UNL1        0.2555
     18 C          16.5487  -24.3853   14.1266 C.3     1  UNL1        0.2526
     19 O          17.5592  -25.3953   14.1557 O.3     1  UNL1       -0.4714
     20 C          18.3809  -25.4148   15.2380 C.ar    1  UNL1        0.1388
     21 C          18.4444  -24.3158   16.0821 C.ar    1  UNL1        0.0383
     22 C          19.2760  -24.3405   17.1851 C.ar    1  UNL1        0.0230
     23 C          20.0537  -25.4547   17.4410 C.ar    1  UNL1        0.1219
     24 C          19.9964  -26.5492   16.5980 C.ar    1  UNL1        0.0230
     25 C          19.1619  -26.5318   15.4972 C.ar    1  UNL1        0.0383
     26 S          21.1191  -25.4802   18.8441 S.O2    1  UNL1        0.0572
     27 O          20.2889  -25.3266   19.9872 O.2     1  UNL1       -0.1532
     28 O          21.9857  -26.5937   18.6760 O.2     1  UNL1       -0.1532
     29 N          22.0681  -24.1254   18.7630 N.3     1  UNL1       -0.2035
     30 H          21.4865  -23.2955   18.8791 H       1  UNL1        0.1442
     31 H          22.5336  -24.0902   17.8561 H       1  UNL1        0.1442
     32 C          21.0707  -21.5598   13.1692 C.3     1  UNL1        0.0575
     33 C          20.5352  -18.9097   16.4765 C.ar    1  UNL1       -0.0000
     34 C          20.9634  -18.4168   15.2581 C.ar    1  UNL1       -0.0003
     35 C          21.1368  -19.2744   14.1879 C.ar    1  UNL1       -0.0042
     36 C          20.8821  -20.6249   14.3361 C.ar    1  UNL1       -0.0200
     37 C          20.4489  -21.1171   15.5531 C.ar    1  UNL1       -0.0042
     38 C          20.2805  -20.2603   16.6247 C.ar    1  UNL1       -0.0003
@<TRIPOS>BOND
     1    33    38   ar
     2    33    34   ar
     3    34    35   ar
     4    35    36   ar
     5    36    37   ar
     6    36    32    1
     7    37    38   ar
     8    32     1    1
     9     1    14    1
    10     1     2    1
    11    14    15    2
    12    14    16    1
    13    16    17    1
    14    17    18    1
    15    18    19    1
    16    19    20    1
    17    20    25   ar
    18    20    21   ar
    19    21    22   ar
    20    22    23   ar
    21    23    24   ar
    22    23    26    1
    23    24    25   ar
    24    26    27    2
    25    26    28    2
    26    26    29    1
    27     2     3   am
    28     3     4    2
    29     3     6    1
    30     6     7    1
    31     7     8    1
    32     8    13   ar
    33     8     9   ar
    34     9    10   ar
    35    10    11   ar
    36    11    12   ar
    37    12    13   ar
    38    29    30    1
    39    29    31    1
    40     2     5    1
#	Name:			ZINC19325977
#	Creating user name:	trannguyen
#	Creation time:		Wed Dec  7 14:36:19 2022


#	Modifying user name:	trannguyen
#	Modification time:	Wed Dec  7 14:36:19 2022

@<TRIPOS>MOLECULE
ZINC19325977
 40 43 0 0 0
SMALL
GASTEIGER

@<TRIPOS>ATOM
      1 N          17.6735  -25.2625   17.2392 N.4     1  UNL1        0.3153
      2 C          17.2719  -25.3941   18.6467 C.3     1  UNL1        0.1181
      3 C          17.4706  -24.0509   19.3551 C.3     1  UNL1        0.1221
      4 C          18.9308  -23.6153   19.2026 C.3     1  UNL1        0.1181
      5 N          19.2696  -23.5509   17.7740 N.4     1  UNL1        0.3153
      6 C          19.0807  -24.8567   17.1288 C.3     1  UNL1        0.1422
      7 H          17.1022  -24.5301   16.8176 H       1  UNL1        0.2135
      8 H          18.6340  -22.8875   17.3309 H       1  UNL1        0.2135
      9 C          19.4614  -24.7567   15.6741 C.ar    1  UNL1        0.1185
     10 C          18.7266  -23.9541   14.8207 C.ar    1  UNL1        0.0108
     11 C          19.0766  -23.8556   13.4873 C.ar    1  UNL1        0.0034
     12 C          20.1562  -24.5680   12.9982 C.ar    1  UNL1        0.0400
     13 C          20.8929  -25.3782   13.8465 C.ar    1  UNL1        0.1725
     14 C          20.5440  -25.4729   15.1907 C.ar    1  UNL1        0.1797
     15 O          21.2645  -26.2666   16.0275 O.3     1  UNL1       -0.4683
     16 C          20.9024  -27.6479   16.0836 C.3     1  UNL1        0.2526
     17 O          21.9552  -26.0791   13.3672 O.3     1  UNL1       -0.4684
     18 C          21.6688  -27.1833   12.5063 C.3     1  UNL1        0.2526
     19 C          17.4256  -26.5089   16.5022 C.3     1  UNL1        0.1421
     20 C          14.1659  -27.5592   14.8897 C.ar    1  UNL1        0.1720
     21 C          13.5643  -26.3307   14.6690 C.ar    1  UNL1        0.0400
     22 C          14.2147  -25.1669   15.0353 C.ar    1  UNL1        0.0032
     23 C          15.4622  -25.2257   15.6278 C.ar    1  UNL1        0.0046
     24 C          16.0653  -26.4487   15.8564 C.ar    1  UNL1        0.0695
     25 C          15.4193  -27.6186   15.4914 C.ar    1  UNL1        0.1692
     26 O          16.0112  -28.8223   15.7157 O.3     1  UNL1       -0.5029
     27 H          15.5734  -29.6129   15.4685 H       1  UNL1        0.2923
     28 C          13.0039  -28.7595   13.1971 C.3     1  UNL1        0.2526
     29 O          13.5302  -28.7046   14.5246 O.3     1  UNL1       -0.4684
     30 C          20.6408  -23.0612   17.5796 C.3     1  UNL1        0.1421
     31 C          20.6001  -21.6561   17.0362 C.ar    1  UNL1        0.0695
     32 C          19.8709  -20.6820   17.6927 C.ar    1  UNL1        0.0046
     33 C          19.8361  -19.3908   17.2002 C.ar    1  UNL1        0.0032
     34 C          20.5211  -19.0705   16.0427 C.ar    1  UNL1        0.0400
     35 C          21.2491  -20.0432   15.3769 C.ar    1  UNL1        0.1720
     36 C          21.2887  -21.3418   15.8759 C.ar    1  UNL1        0.1692
     37 O          22.0016  -22.3003   15.2257 O.3     1  UNL1       -0.5029
     38 H          22.0276  -23.1742   15.5625 H       1  UNL1        0.2923
     39 O          21.9238  -19.7297   14.2385 O.3     1  UNL1       -0.4684
     40 C          21.6189  -18.4738   13.6287 C.3     1  UNL1        0.2526
@<TRIPOS>UNITY_ATOM_ATTR
1 1
charge 1
5 1
charge 1
@<TRIPOS>BOND
     1    28    29    1
     2    29    20    1
     3    20    25   ar
     4    20    21   ar
     5    21    22   ar
     6    22    23   ar
     7    23    24   ar
     8    24    25   ar
     9    24    19    1
    10    25    26    1
    11    19     1    1
    12     1     6    1
    13     1     2    1
    14     2     3    1
    15     3     4    1
    16     4     5    1
    17     5     6    1
    18     5    30    1
    19     6     9    1
    20     9    14   ar
    21     9    10   ar
    22    10    11   ar
    23    11    12   ar
    24    12    13   ar
    25    13    14   ar
    26    13    17    1
    27    14    15    1
    28    15    16    1
    29    17    18    1
    30    30    31    1
    31    31    36   ar
    32    31    32   ar
    33    32    33   ar
    34    33    34   ar
    35    34    35   ar
    36    35    36   ar
    37    35    39    1
    38    36    37    1
    39    39    40    1
    40    26    27    1
    41     1     7    1
    42     5     8    1
    43    37    38    1
#	Name:			ZINC19430371
#	Creating user name:	trannguyen
#	Creation time:		Wed Dec  7 14:36:19 2022


#	Modifying user name:	trannguyen
#	Modification time:	Wed Dec  7 14:36:19 2022

@<TRIPOS>MOLECULE
ZINC19430371
 21 23 0 0 0
SMALL
GASTEIGER

@<TRIPOS>ATOM
      1 C          20.5767  -21.2211   15.4273 C.ar    1  UNL1        0.1781
      2 C          21.0078  -20.0941   14.7247 C.ar    1  UNL1        0.2337
      3 C          20.8702  -18.8326   15.3264 C.ar    1  UNL1        0.2735
      4 N          21.3541  -17.9290   14.4536 N.ar    1  UNL1       -0.2142
      5 C          21.7719  -18.5350   13.3772 C.ar    1  UNL1        0.3730
      6 N          21.5821  -19.8689   13.4915 N.ar    1  UNL1       -0.2260
      7 N          20.3320  -18.7603   16.5482 N.ar    1  UNL1       -0.1820
      8 C          19.9402  -19.8493   17.1716 C.ar    1  UNL1        0.2034
      9 N          20.0485  -21.0520   16.6365 N.ar    1  UNL1       -0.2050
     10 H          21.3875  -16.9568   14.6051 H       1  UNL1        0.3132
     11 H          21.8112  -20.5515   12.8201 H       1  UNL1        0.3118
     12 C          20.6251  -24.8066   15.5885 C.3     1  UNL1        0.1371
     13 C          19.6146  -24.5639   14.4439 C.3     1  UNL1        0.0568
     14 C          19.3523  -23.0390   14.5251 C.3     1  UNL1        0.1132
     15 N          20.6912  -22.4867   14.8751 N.pl3   1  UNL1       -0.2844
     16 C          21.2799  -23.4364   15.8440 C.3     1  UNL1        0.1220
     17 C          18.8838  -22.5083   13.1947 C.2     1  UNL1        0.0684
     18 O          17.7034  -22.3557   12.9870 O.co2   1  UNL1       -0.5475
     19 O          19.7778  -22.2053   12.2405 O.co2   1  UNL1       -0.5475
     20 C          21.8502  -25.7890   13.7777 C.3     1  UNL1        0.1741
     21 O          21.6105  -25.7600   15.1861 O.3     1  UNL1       -0.3518
@<TRIPOS>UNITY_ATOM_ATTR
4 1
charge 1
19 1
charge -1
@<TRIPOS>BOND
     1    20    21    1
     2    21    12    1
     3    12    16    1
     4    12    13    1
     5    13    14    1
     6    14    15    1
     7    14    17    1
     8    15    16    1
     9    15     1    1
    10     1     9   ar
    11     1     2   ar
    12     2     6   ar
    13     2     3   ar
    14     3     4   ar
    15     3     7   ar
    16     4     5   ar
    17     5     6   ar
    18     7     8   ar
    19     8     9   ar
    20    17    18   ar
    21    17    19   ar
    22     4    10    1
    23     6    11    1
#	Name:			ZINC19473099
#	Creating user name:	trannguyen
#	Creation time:		Wed Dec  7 14:36:19 2022


#	Modifying user name:	trannguyen
#	Modification time:	Wed Dec  7 14:36:19 2022

@<TRIPOS>MOLECULE
ZINC19473099
 20 21 0 0 0
SMALL
GASTEIGER

@<TRIPOS>ATOM
      1 C1         21.0254  -20.5995   16.8212 C.2     1  <1>         0.2671
      2 O1         21.0310  -19.5662   17.4600 O.2     1  <1>        -0.2682
      3 N1         21.4345  -20.6002   15.5371 N.am    1  <1>        -0.2716
      4 C2         21.3192  -21.8126   14.7152 C.3     1  <1>         0.0941
      5 C3         20.5570  -21.4678   13.4319 C.3     1  <1>         0.0216
      6 C4         21.2498  -20.2969   12.7310 C.3     1  <1>         0.0038
      7 C5         21.2340  -19.0706   13.6464 C.3     1  <1>         0.0256
      8 C6         22.0039  -19.3883   14.9322 C.3     1  <1>         0.1121
      9 C7         19.2419  -22.1342   17.5578 C.ar    1  <1>         0.0842
     10 C8         20.5685  -21.8606   17.4546 C.ar    1  <1>         0.1396
     11 N2         21.4858  -22.7623   17.9489 N.ar    1  <1>        -0.2395
     12 C9         21.0919  -23.9094   18.5263 C.ar    1  <1>         0.0621
     13 O2         21.9333  -24.6782   18.9497 O.co2   1  <1>        -0.8476
     14 N3         19.7918  -24.2302   18.6482 N.ar    1  <1>        -0.3186
     15 C10        18.8365  -23.3964   18.1876 C.ar    1  <1>         0.2596
     16 O3         17.6590  -23.6836   18.2967 O.2     1  <1>        -0.2671
     17 H1         19.5355  -25.0789   19.0763 H       1  <1>         0.1692
     18 C11        21.8770  -18.2357   15.8948 C.2     1  <1>         0.0684
     19 O4         22.8114  -17.9294   16.5970 O.co2   1  <1>        -0.5475
     20 O5         20.7242  -17.5529   15.9761 O.co2   1  <1>        -0.5475
@<TRIPOS>UNITY_ATOM_ATTR
13 1
charge -1
20 1
charge -1
@<TRIPOS>BOND
     1     9    15   ar
     2     9    10   ar
     3    10    11   ar
     4    10     1    1
     5    11    12   ar
     6    12    13    1
     7    12    14   ar
     8    14    15   ar
     9    15    16    2
    10     1     2    2
    11     1     3   am
    12     3     8    1
    13     3     4    1
    14     4     5    1
    15     5     6    1
    16     6     7    1
    17     7     8    1
    18     8    18    1
    19    18    19   ar
    20    18    20   ar
    21    14    17    1
#	Name:			ZINC19636832
#	Creating user name:	trannguyen
#	Creation time:		Wed Dec  7 14:36:20 2022


#	Modifying user name:	trannguyen
#	Modification time:	Wed Dec  7 14:36:20 2022

@<TRIPOS>MOLECULE
ZINC19636832
 33 34 0 0 0
SMALL
GASTEIGER

@<TRIPOS>ATOM
      1 C          21.6156  -20.2587   13.6222 C.3     1  UNL1        0.1283
      2 C          21.7367  -19.1442   12.5810 C.3     1  UNL1        0.0217
      3 N          23.0627  -22.2642   13.6699 N.am    1  UNL1       -0.2832
      4 C          22.1116  -21.5536   13.0321 C.2     1  UNL1        0.2361
      5 O          21.6548  -21.9562   11.9833 O.2     1  UNL1       -0.2739
      6 H          23.3873  -21.9716   14.5520 H       1  UNL1        0.1549
      7 C          24.6279  -25.6987   11.9079 C.ar    1  UNL1        0.0757
      8 C          23.6247  -25.8028   12.8759 C.ar    1  UNL1        0.0077
      9 C          23.1100  -24.6658   13.4564 C.ar    1  UNL1        0.0149
     10 C          23.5868  -23.4138   13.0805 C.ar    1  UNL1        0.0503
     11 C          24.5854  -23.3063   12.1174 C.ar    1  UNL1        0.0149
     12 C          25.1047  -24.4391   11.5326 C.ar    1  UNL1        0.0077
     13 C          25.1821  -26.9145   11.2840 C.2     1  UNL1        0.3412
     14 O          24.7942  -28.0101   11.6387 O.2     1  UNL1       -0.2449
     15 O          26.1187  -26.8107   10.3208 O.3     1  UNL1       -0.4454
     16 C          24.8100  -26.6874    8.2709 C.3     1  UNL1        0.0513
     17 C          25.8484  -27.4841    9.0633 C.3     1  UNL1        0.2089
     18 S          19.8786  -20.4431   14.1112 S.3     1  UNL1       -0.1052
     19 C          19.9332  -21.5768   15.4590 C.ar    1  UNL1        0.0257
     20 C          19.7420  -22.9345   15.2333 C.ar    1  UNL1        0.0074
     21 C          19.7910  -23.8229   16.2886 C.ar    1  UNL1        0.0152
     22 C          20.0196  -23.3587   17.5773 C.ar    1  UNL1        0.0503
     23 C          20.2046  -22.0013   17.8042 C.ar    1  UNL1        0.0152
     24 C          20.1618  -21.1128   16.7486 C.ar    1  UNL1        0.0074
     25 N          20.0640  -24.2606   18.6492 N.am    1  UNL1       -0.2839
     26 C          21.2486  -24.7368   19.0806 C.2     1  UNL1        0.2261
     27 O          22.2814  -24.3155   18.6041 O.2     1  UNL1       -0.2748
     28 H          19.2297  -24.5462   19.0870 H       1  UNL1        0.1549
     29 C          21.2902  -25.7928   20.1548 C.3     1  UNL1        0.0854
     30 C          21.0566  -27.1684   19.5272 C.3     1  UNL1        0.0086
     31 C          22.1348  -28.1398   20.0120 C.3     1  UNL1        0.0005
     32 C          19.6783  -27.6895   19.9390 C.3     1  UNL1        0.0005
     33 C          21.1233  -27.0517   18.0031 C.3     1  UNL1        0.0005
@<TRIPOS>BOND
     1    16    17    1
     2    17    15    1
     3    15    13    1
     4    13    14    2
     5    13     7    1
     6     7    12   ar
     7     7     8   ar
     8     8     9   ar
     9     9    10   ar
    10    10    11   ar
    11    10     3    1
    12    11    12   ar
    13     3     4   am
    14     4     5    2
    15     4     1    1
    16     1     2    1
    17     1    18    1
    18    18    19    1
    19    19    24   ar
    20    19    20   ar
    21    20    21   ar
    22    21    22   ar
    23    22    23   ar
    24    22    25    1
    25    23    24   ar
    26    25    26   am
    27    26    27    2
    28    26    29    1
    29    29    30    1
    30    30    31    1
    31    30    32    1
    32    30    33    1
    33     3     6    1
    34    25    28    1
#	Name:			ZINC19637009
#	Creating user name:	trannguyen
#	Creation time:		Wed Dec  7 14:36:20 2022


#	Modifying user name:	trannguyen
#	Modification time:	Wed Dec  7 14:36:20 2022

@<TRIPOS>MOLECULE
ZINC19637009
 32 33 0 0 0
SMALL
GASTEIGER

@<TRIPOS>ATOM
      1 N          17.0409  -24.6006   15.3214 N.am    1  UNL1       -0.6271
      2 C          21.1112  -23.7648   14.9733 C.ar    1  UNL1       -0.1237
      3 C          20.4702  -24.5146   13.9958 C.ar    1  UNL1       -0.0265
      4 C          19.1239  -24.7962   14.1139 C.ar    1  UNL1       -0.0265
      5 C          18.4079  -24.3195   15.2042 C.ar    1  UNL1       -0.1237
      6 C          19.0476  -23.5645   16.1786 C.ar    1  UNL1       -0.0265
      7 C          20.3952  -23.2881   16.0636 C.ar    1  UNL1       -0.0265
      8 N          22.4785  -23.4845   14.8565 N.am    1  UNL1       -0.6271
      9 C          22.9168  -22.6610   13.8838 C.2     1  UNL1       -0.0347
     10 S          23.9803  -23.2500   12.6783 S.2     1  UNL1       -0.0617
     11 C          21.7351  -20.9293   12.8570 C.2     1  UNL1        0.2251
     12 O          21.3897  -21.6874   11.9761 O.2     1  UNL1       -0.2748
     13 N          22.5180  -21.3739   13.8600 N.am    1  UNL1       -0.2990
     14 H          22.7985  -20.7584   14.5753 H       1  UNL1        0.1535
     15 C          21.6732  -18.8129   14.1476 C.3     1  UNL1        0.0101
     16 C          21.2892  -19.4901   12.8305 C.3     1  UNL1        0.0854
     17 C          16.2979  -24.8061   14.2159 C.2     1  UNL1       -0.0344
     18 S          16.1374  -23.5634   13.0493 S.2     1  UNL1       -0.0617
     19 N          15.6813  -25.9898   14.0287 N.am    1  UNL1       -0.2955
     20 C          14.4279  -26.1768   14.4875 C.2     1  UNL1        0.2485
     21 O          13.8537  -25.2780   15.0700 O.2     1  UNL1       -0.2698
     22 H          16.1464  -26.7178   13.5567 H       1  UNL1        0.1538
     23 C          13.7519  -27.4747   14.2824 C.ar    1  UNL1        0.0536
     24 C          13.7080  -28.4133   15.3150 C.ar    1  UNL1        0.0042
     25 C          13.0707  -29.6209   15.1185 C.ar    1  UNL1       -0.0041
     26 C          12.4859  -29.9075   13.8978 C.ar    1  UNL1       -0.0228
     27 C          12.5304  -28.9838   12.8684 C.ar    1  UNL1       -0.0041
     28 C          13.1594  -27.7701   13.0532 C.ar    1  UNL1        0.0042
     29 C          11.7970  -31.2314   13.6884 C.3     1  UNL1        0.0189
     30 C          12.0144  -31.6971   12.2472 C.3     1  UNL1        0.0044
     31 C          12.3788  -32.2671   14.6524 C.3     1  UNL1        0.0044
     32 C          10.2983  -31.0738   13.9528 C.3     1  UNL1        0.0044
@<TRIPOS>UNITY_ATOM_ATTR
1 1
charge -1
8 1
charge -1
@<TRIPOS>BOND
     1    15    16    1
     2    16    11    1
     3    11    12    2
     4    11    13   am
     5    13     9    1
     6     9    10    2
     7     9     8    1
     8     8     2    1
     9     2     7   ar
    10     2     3   ar
    11     3     4   ar
    12     4     5   ar
    13     5     6   ar
    14     5     1    1
    15     6     7   ar
    16     1    17    1
    17    17    18    2
    18    17    19    1
    19    19    20   am
    20    20    21    2
    21    20    23    1
    22    23    28   ar
    23    23    24   ar
    24    24    25   ar
    25    25    26   ar
    26    26    27   ar
    27    26    29    1
    28    27    28   ar
    29    29    30    1
    30    29    31    1
    31    29    32    1
    32    13    14    1
    33    19    22    1
#	Name:			ZINC19901146
#	Creating user name:	trannguyen
#	Creation time:		Wed Dec  7 14:36:19 2022


#	Modifying user name:	trannguyen
#	Modification time:	Wed Dec  7 14:36:19 2022

@<TRIPOS>MOLECULE
ZINC19901146
 39 41 0 0 0
SMALL
GASTEIGER

@<TRIPOS>ATOM
      1 C          19.8556  -22.5515   14.9405 C.3     1  UNL1        0.0919
      2 C          21.0899  -22.4880   14.0390 C.2     1  UNL1        0.1105
      3 C          20.6724  -22.6582   12.6012 C.2     1  UNL1        0.1936
      4 O          21.2398  -22.0331   11.7308 O.2     1  UNL1       -0.4948
      5 N          19.6788  -23.5027   12.2787 N.pl3   1  UNL1       -0.2793
      6 C          18.9427  -24.1381   13.2548 C.2     1  UNL1        0.0834
      7 C          19.0083  -23.7356   14.5521 C.2     1  UNL1        0.0738
      8 H          21.9331  -21.4435   11.9535 H       1  UNL1        0.2935
      9 H          19.4734  -23.6701   11.3306 H       1  UNL1        0.1555
     10 C          20.3971  -21.5714   17.1840 C.ar    1  UNL1        0.1351
     11 C          20.7919  -21.7066   18.5073 C.ar    1  UNL1        0.0366
     12 C          21.0883  -22.9570   19.0140 C.ar    1  UNL1        0.0031
     13 C          20.9854  -24.0741   18.2055 C.ar    1  UNL1       -0.0001
     14 C          20.5863  -23.9427   16.8885 C.ar    1  UNL1       -0.0006
     15 C          20.2896  -22.6941   16.3766 C.ar    1  UNL1        0.0207
     16 O          20.1113  -20.3416   16.6812 O.3     1  UNL1       -0.4758
     17 C          20.7756  -18.3360   15.5078 C.3     1  UNL1        0.0512
     18 C          21.2153  -19.4668   16.4399 C.3     1  UNL1        0.2055
     19 C          18.2685  -24.4413   15.5548 C.1     1  UNL1        0.0985
     20 N          17.6816  -25.0011   16.3502 N.1     1  UNL1       -0.1911
     21 C          22.0458  -23.5898   14.4181 C.2     1  UNL1        0.3421
     22 O          23.0984  -23.3209   14.9472 O.2     1  UNL1       -0.2451
     23 O          21.7279  -24.8696   14.1681 O.3     1  UNL1       -0.4455
     24 C          22.6956  -25.6560   13.4241 C.3     1  UNL1        0.2089
     25 C          21.9967  -26.8634   12.7958 C.3     1  UNL1        0.0513
     26 S          17.9077  -25.4953   12.8174 S.3     1  UNL1       -0.0889
     27 C          16.3369  -24.6284   12.5782 C.3     1  UNL1        0.1484
     28 C          15.3606  -25.0544   13.6442 C.2     1  UNL1        0.2375
     29 O          14.7633  -24.2183   14.2886 O.2     1  UNL1       -0.2738
     30 N          15.1511  -26.3644   13.8814 N.am    1  UNL1       -0.2831
     31 H          15.6852  -27.0421   13.4073 H       1  UNL1        0.1549
     32 C          14.1745  -26.7614   14.8015 C.ar    1  UNL1        0.0534
     33 C          14.4837  -26.8396   16.1537 C.ar    1  UNL1        0.0149
     34 C          13.5198  -27.2319   17.0618 C.ar    1  UNL1        0.0044
     35 C          12.2458  -27.5471   16.6283 C.ar    1  UNL1        0.0370
     36 C          11.9328  -27.4760   15.2784 C.ar    1  UNL1        0.1400
     37 C          12.8961  -27.0780   14.3644 C.ar    1  UNL1        0.0515
     38 O          10.6813  -27.7917   14.8530 O.3     1  UNL1       -0.4714
     39 C          10.3967  -27.5887   13.4673 C.3     1  UNL1        0.2525
@<TRIPOS>BOND
     1    17    18    1
     2    18    16    1
     3    16    10    1
     4    10    15   ar
     5    10    11   ar
     6    11    12   ar
     7    12    13   ar
     8    13    14   ar
     9    14    15   ar
    10    15     1    1
    11     1     7    1
    12     1     2    1
    13     2     3    2
    14     2    21    1
    15     3     4    1
    16     3     5    1
    17     5     6    1
    18     6     7    2
    19     6    26    1
    20     7    19    1
    21    19    20    3
    22    26    27    1
    23    27    28    1
    24    28    29    2
    25    28    30   am
    26    30    32    1
    27    32    37   ar
    28    32    33   ar
    29    33    34   ar
    30    34    35   ar
    31    35    36   ar
    32    36    37   ar
    33    36    38    1
    34    38    39    1
    35    21    22    2
    36    21    23    1
    37    23    24    1
    38    24    25    1
    39     4     8    1
    40     5     9    1
    41    30    31    1
#	Name:			ZINC19995368
#	Creating user name:	trannguyen
#	Creation time:		Wed Dec  7 14:36:19 2022


#	Modifying user name:	trannguyen
#	Modification time:	Wed Dec  7 14:36:19 2022

@<TRIPOS>MOLECULE
ZINC19995368
 21 22 0 0 0
SMALL
GASTEIGER

@<TRIPOS>ATOM
      1 N          20.8150  -20.2114   15.0418 N.am    1  UNL1       -0.2048
      2 C          20.6288  -21.2523   14.2043 C.2     1  UNL1        0.2576
      3 O          20.2983  -21.0718   13.0473 O.2     1  UNL1       -0.2694
      4 C          20.8408  -22.6137   14.7273 C.2     1  UNL1        0.0696
      5 C          20.6731  -23.7284   13.9269 C.2     1  UNL1        0.0772
      6 C          21.2337  -22.7352   16.1426 C.2     1  UNL1       -0.0045
      7 O          21.4228  -23.8261   16.6471 O.co2   1  UNL1       -0.8613
      8 N          21.3785  -21.6042   16.8634 N.am    1  UNL1       -0.1781
      9 C          21.1734  -20.3961   16.3201 C.2     1  UNL1        0.3327
     10 O          21.3205  -19.4162   17.0239 O.2     1  UNL1       -0.2500
     11 N          20.1931  -23.5928   12.6745 N.pl3   1  UNL1       -0.2741
     12 H          20.7048  -23.0857   12.0035 H       1  UNL1        0.1666
     13 N          18.9968  -24.1591   12.3365 N.3     1  UNL1       -0.2080
     14 C          18.1688  -23.2206   11.5682 C.3     1  UNL1        0.0918
     15 C          16.9040  -23.9330   11.0837 C.3     1  UNL1        0.0191
     16 C          16.1250  -24.4583   12.2929 C.3     1  UNL1        0.0030
     17 C          17.0257  -25.3953   13.1024 C.3     1  UNL1        0.0191
     18 C          18.2871  -24.6405   13.5284 C.3     1  UNL1        0.0918
     19 C          20.6151  -18.8479   14.5444 C.3     1  UNL1        0.1291
     20 C          21.9354  -17.9835   12.6815 C.2     1  UNL1       -0.0031
     21 C          21.8994  -18.3399   13.9415 C.2     1  UNL1       -0.0042
@<TRIPOS>UNITY_ATOM_ATTR
7 1
charge -1
@<TRIPOS>BOND
     1    20    21    2
     2    21    19    1
     3    19     1    1
     4     1     9   am
     5     1     2   am
     6     2     3    2
     7     2     4    1
     8     4     5    2
     9     4     6    1
    10     5    11    1
    11    11    13    1
    12    13    18    1
    13    13    14    1
    14    14    15    1
    15    15    16    1
    16    16    17    1
    17    17    18    1
    18     6     7    1
    19     6     8    2
    20     8     9    1
    21     9    10    2
    22    11    12    1
#	Name:			ZINC20036827
#	Creating user name:	trannguyen
#	Creation time:		Wed Dec  7 14:36:20 2022


#	Modifying user name:	trannguyen
#	Modification time:	Wed Dec  7 14:36:20 2022

@<TRIPOS>MOLECULE
ZINC20036827
 31 33 0 0 0
SMALL
GASTEIGER

@<TRIPOS>ATOM
      1 C          20.7250  -20.7053   17.4747 C.3     1  UNL1        0.2931
      2 N          21.8379  -25.1047   19.0614 N.am    1  UNL1       -0.2883
      3 C          20.8980  -24.2154   18.6843 C.2     1  UNL1        0.3066
      4 O          19.7239  -24.5291   18.6988 O.2     1  UNL1       -0.2524
      5 N          21.2601  -22.9781   18.2912 N.am    1  UNL1       -0.2366
      6 C          20.3202  -22.0887   17.9142 C.2     1  UNL1        0.2739
      7 O          19.1490  -22.4017   17.9287 O.2     1  UNL1       -0.2706
      8 H          22.7889  -24.8505   19.0497 H       1  UNL1        0.1510
      9 H          22.2111  -22.7240   18.2794 H       1  UNL1        0.1592
     10 C          21.4443  -26.4496   19.4886 C.3     1  UNL1        0.0961
     11 C          21.8265  -27.4609   18.4060 C.3     1  UNL1        0.0542
     12 C          23.2602  -30.1250   20.7208 C.ar    1  UNL1        0.0072
     13 C          22.7366  -28.9006   20.3502 C.ar    1  UNL1        0.0027
     14 C          22.4093  -28.6916   19.0515 C.ar    1  UNL1        0.0090
     15 S          22.8552  -30.2498   18.3030 S.2     1  UNL1       -0.0907
     16 C          23.4407  -31.0768   19.7728 C.ar    1  UNL1        0.0351
     17 O          20.3676  -20.5164   16.0802 O.3     1  UNL1       -0.4353
     18 C          20.9652  -21.3240   15.1799 C.2     1  UNL1        0.3422
     19 O          22.1715  -21.2809   15.0308 O.2     1  UNL1       -0.2449
     20 C          20.1604  -22.2538   14.3810 C.2     1  UNL1        0.0821
     21 C          19.2134  -21.7676   13.5021 C.2     1  UNL1        0.0134
     22 C          18.4388  -22.6624   12.7332 C.ar    1  UNL1        0.0297
     23 C          18.7522  -23.2810   11.5262 C.ar    1  UNL1        0.0070
     24 C          17.8051  -24.1177   10.9918 C.ar    1  UNL1        0.0075
     25 C          16.6263  -24.2912   11.6461 C.ar    1  UNL1        0.0354
     26 S          16.7989  -23.2896   13.0505 S.2     1  UNL1       -0.0864
     27 C          20.3626  -23.7085   14.5166 C.ar    1  UNL1        0.0357
     28 C          19.6239  -24.6214   15.2248 C.ar    1  UNL1        0.0072
     29 C          20.0071  -25.9447   15.1988 C.ar    1  UNL1        0.0075
     30 C          21.1057  -26.3017   14.4857 C.ar    1  UNL1        0.0354
     31 S          21.6372  -24.7382   13.8074 S.2     1  UNL1       -0.0862
@<TRIPOS>BOND
     1    12    16   ar
     2    12    13   ar
     3    13    14   ar
     4    14    15   ar
     5    14    11    1
     6    15    16   ar
     7    11    10    1
     8    10     2    1
     9     2     3   am
    10     3     4    2
    11     3     5   am
    12     5     6   am
    13     6     7    2
    14     6     1    1
    15     1    17    1
    16    17    18    1
    17    18    19    2
    18    18    20    1
    19    20    21    2
    20    20    27    1
    21    21    22    1
    22    22    26   ar
    23    22    23   ar
    24    23    24   ar
    25    24    25   ar
    26    25    26   ar
    27    27    31   ar
    28    27    28   ar
    29    28    29   ar
    30    29    30   ar
    31    30    31   ar
    32     2     8    1
    33     5     9    1
#	Name:			ZINC20058757
#	Creating user name:	trannguyen
#	Creation time:		Wed Dec  7 14:36:20 2022


#	Modifying user name:	trannguyen
#	Modification time:	Wed Dec  7 14:36:20 2022

@<TRIPOS>MOLECULE
ZINC20058757
 33 35 0 0 0
SMALL
GASTEIGER

@<TRIPOS>ATOM
      1 N          18.1764  -26.0175   20.9242 N.am    1  UNL1       -0.6271
      2 C          18.8406  -25.2708   19.9531 C.ar    1  UNL1       -0.1235
      3 C          20.1614  -25.5682   19.6315 C.ar    1  UNL1       -0.0245
      4 C          20.8189  -24.8356   18.6693 C.ar    1  UNL1        0.0026
      5 C          20.1616  -23.7853   18.0225 C.ar    1  UNL1        0.0532
      6 C          18.8367  -23.4858   18.3516 C.ar    1  UNL1        0.0026
      7 C          18.1833  -24.2257   19.3111 C.ar    1  UNL1       -0.0245
      8 C          20.8652  -22.9938   16.9948 C.2     1  UNL1        0.2458
      9 O          21.7600  -23.4994   16.3450 O.2     1  UNL1       -0.2701
     10 N          20.5162  -21.7104   16.7765 N.am    1  UNL1       -0.3025
     11 H          19.7917  -21.3010   17.3027 H       1  UNL1        0.1497
     12 C          21.2147  -20.9246   15.7564 C.3     1  UNL1        0.0719
     13 C          21.3170  -19.4687   16.2154 C.3     1  UNL1        0.0196
     14 C          22.0465  -18.6481   15.1500 C.3     1  UNL1        0.0017
     15 C          21.2689  -18.7145   13.8340 C.3     1  UNL1        0.0001
     16 C          21.1667  -20.1703   13.3749 C.3     1  UNL1        0.0017
     17 C          20.4371  -20.9910   14.4404 C.3     1  UNL1        0.0196
     18 C          17.4495  -27.0945   20.5659 C.2     1  UNL1       -0.0344
     19 S          17.0711  -28.2960   21.7253 S.2     1  UNL1       -0.0617
     20 C          15.7734  -26.8396   18.9613 C.2     1  UNL1        0.2486
     21 O          15.0352  -26.3731   19.8064 O.2     1  UNL1       -0.2698
     22 N          17.0208  -27.2257   19.2949 N.am    1  UNL1       -0.2955
     23 H          17.6188  -27.6036   18.6103 H       1  UNL1        0.1538
     24 C          15.5530  -26.4829   15.2256 C.ar    1  UNL1        0.1385
     25 C          14.4226  -27.2412   14.9510 C.ar    1  UNL1        0.0369
     26 C          13.7365  -27.8650   15.9763 C.ar    1  UNL1        0.0033
     27 C          14.1731  -27.7420   17.2796 C.ar    1  UNL1        0.0047
     28 C          15.3055  -26.9776   17.5663 C.ar    1  UNL1        0.0566
     29 C          15.9972  -26.3488   16.5300 C.ar    1  UNL1        0.0414
     30 O          16.2240  -25.8727   14.2135 O.3     1  UNL1       -0.4792
     31 C          18.0632  -24.3128   14.3695 C.3     1  UNL1        0.0472
     32 C          16.5437  -24.4908   14.3875 C.3     1  UNL1        0.1661
     33 C          15.9212  -23.6763   13.2518 C.3     1  UNL1        0.0472
@<TRIPOS>UNITY_ATOM_ATTR
1 1
charge -1
@<TRIPOS>BOND
     1    31    32    1
     2    32    33    1
     3    32    30    1
     4    30    24    1
     5    24    29   ar
     6    24    25   ar
     7    25    26   ar
     8    26    27   ar
     9    27    28   ar
    10    28    29   ar
    11    28    20    1
    12    20    21    2
    13    20    22   am
    14    22    18    1
    15    18    19    2
    16    18     1    1
    17     1     2    1
    18     2     7   ar
    19     2     3   ar
    20     3     4   ar
    21     4     5   ar
    22     5     6   ar
    23     5     8    1
    24     6     7   ar
    25     8     9    2
    26     8    10   am
    27    10    12    1
    28    12    17    1
    29    12    13    1
    30    13    14    1
    31    14    15    1
    32    15    16    1
    33    16    17    1
    34    22    23    1
    35    10    11    1
#	Name:			ZINC20080879
#	Creating user name:	trannguyen
#	Creation time:		Wed Dec  7 14:36:19 2022


#	Modifying user name:	trannguyen
#	Modification time:	Wed Dec  7 14:36:19 2022

@<TRIPOS>MOLECULE
ZINC20080879
 40 42 0 0 0
SMALL
GASTEIGER

@<TRIPOS>ATOM
      1 C          17.8075  -24.3157   14.2887 C.2     1  UNL1        0.0811
      2 C          18.7235  -23.5776   13.6063 C.2     1  UNL1        0.0735
      3 C          19.9241  -22.9939   14.2955 C.3     1  UNL1        0.0856
      4 C          19.7406  -23.0018   15.7860 C.2     1  UNL1        0.0712
      5 C          18.7973  -23.7536   16.3778 C.2     1  UNL1        0.0289
      6 N          17.9567  -24.5395   15.6394 N.pl3   1  UNL1       -0.3109
      7 C          18.6637  -23.7302   17.8787 C.3     1  UNL1        0.0471
      8 H          17.4567  -25.2675   16.0744 H       1  UNL1        0.1524
      9 C          21.1425  -23.8074   13.9426 C.ar    1  UNL1       -0.0101
     10 C          22.3679  -23.1849   13.7930 C.ar    1  UNL1       -0.0003
     11 C          23.4886  -23.9268   13.4693 C.ar    1  UNL1        0.0395
     12 C          23.3853  -25.2975   13.2945 C.ar    1  UNL1        0.1677
     13 C          22.1520  -25.9241   13.4455 C.ar    1  UNL1        0.1718
     14 C          21.0336  -25.1752   13.7748 C.ar    1  UNL1        0.0364
     15 O          24.4869  -26.0289   12.9765 O.3     1  UNL1       -0.5029
     16 H          25.3168  -25.6058   12.8750 H       1  UNL1        0.2923
     17 O          22.0456  -27.2691   13.2750 O.3     1  UNL1       -0.4684
     18 C          21.6675  -27.7306   11.9765 C.3     1  UNL1        0.2526
     19 C          20.5824  -22.1973   16.5874 C.2     1  UNL1        0.3390
     20 O          21.4098  -22.7168   17.3130 O.2     1  UNL1       -0.2452
     21 O          20.4684  -20.8532   16.5479 O.3     1  UNL1       -0.4406
     22 C          21.5288  -20.1304   15.9193 C.3     1  UNL1        0.2352
     23 C          20.9528  -19.0022   15.1029 C.2     1  UNL1        0.0208
     24 C          21.6897  -18.4049   14.1995 C.2     1  UNL1       -0.0011
     25 C          18.5398  -23.3522   12.2040 C.1     1  UNL1        0.0985
     26 N          18.3942  -23.1732   11.0918 N.1     1  UNL1       -0.1911
     27 S          16.4193  -24.9901   13.4387 S.3     1  UNL1       -0.0890
     28 C          15.1096  -24.6188   14.6316 C.3     1  UNL1        0.1484
     29 N          12.9463  -25.6252   15.2839 N.am    1  UNL1       -0.2834
     30 C          14.1540  -25.7817   14.7064 C.2     1  UNL1        0.2375
     31 O          14.4716  -26.8582   14.2470 O.2     1  UNL1       -0.2738
     32 H          12.7194  -24.7766   15.7284 H       1  UNL1        0.1549
     33 C           9.5679  -28.2074   12.8161 C.3     1  UNL1        0.0311
     34 C          10.3634  -27.9427   14.0684 C.ar    1  UNL1       -0.0206
     35 C          10.1734  -28.7331   15.1874 C.ar    1  UNL1       -0.0045
     36 C          10.9018  -28.4940   16.3379 C.ar    1  UNL1       -0.0034
     37 C          11.8221  -27.4645   16.3731 C.ar    1  UNL1       -0.0084
     38 C          12.0148  -26.6690   15.2516 C.ar    1  UNL1        0.0460
     39 C          11.2770  -26.9077   14.0993 C.ar    1  UNL1        0.0101
     40 C          12.6164  -27.2052   17.6273 C.3     1  UNL1        0.0323
@<TRIPOS>BOND
     1    33    34    1
     2    34    39   ar
     3    34    35   ar
     4    35    36   ar
     5    36    37   ar
     6    37    38   ar
     7    37    40    1
     8    38    39   ar
     9    38    29    1
    10    29    30   am
    11    30    31    2
    12    30    28    1
    13    28    27    1
    14    27     1    1
    15     1     6    1
    16     1     2    2
    17     2     3    1
    18     2    25    1
    19     3     4    1
    20     3     9    1
    21     4     5    2
    22     4    19    1
    23     5     6    1
    24     5     7    1
    25    19    20    2
    26    19    21    1
    27    21    22    1
    28    22    23    1
    29    23    24    2
    30     9    14   ar
    31     9    10   ar
    32    10    11   ar
    33    11    12   ar
    34    12    13   ar
    35    12    15    1
    36    13    14   ar
    37    13    17    1
    38    17    18    1
    39    25    26    3
    40    29    32    1
    41     6     8    1
    42    15    16    1
#	Name:			ZINC20082721
#	Creating user name:	trannguyen
#	Creation time:		Wed Dec  7 14:36:19 2022


#	Modifying user name:	trannguyen
#	Modification time:	Wed Dec  7 14:36:19 2022

@<TRIPOS>MOLECULE
ZINC20082721
 37 39 0 0 0
SMALL
GASTEIGER

@<TRIPOS>ATOM
      1 N          15.4974  -25.7478   15.0848 N.am    1  UNL1       -0.2653
      2 C          16.7624  -25.8822   14.3528 C.3     1  UNL1        0.1230
      3 C          16.8223  -24.7132   13.3974 C.2     1  UNL1        0.0277
      4 C          15.6875  -23.9995   13.5819 C.2     1  UNL1       -0.0350
      5 C          14.8696  -24.6494   14.6272 C.2     1  UNL1        0.2340
      6 O          13.7918  -24.2483   15.0191 O.2     1  UNL1       -0.2712
      7 O          15.3544  -22.8705   12.9149 O.co2   1  UNL1       -0.8701
      8 C          17.9207  -25.8250   15.3150 C.ar    1  UNL1        0.0002
      9 C          18.0534  -24.7483   16.1722 C.ar    1  UNL1        0.0008
     10 C          19.1112  -24.6962   17.0591 C.ar    1  UNL1        0.0364
     11 C          20.0475  -25.7198   17.0811 C.ar    1  UNL1        0.1337
     12 C          19.9152  -26.7963   16.2160 C.ar    1  UNL1        0.0364
     13 C          18.8522  -26.8466   15.3353 C.ar    1  UNL1        0.0008
     14 O          21.0927  -25.6678   17.9482 O.3     1  UNL1       -0.5055
     15 H          21.1812  -24.9403   18.5321 H       1  UNL1        0.2922
     16 C          17.9021  -24.4105   12.4526 C.2     1  UNL1        0.1925
     17 O          17.9098  -24.9282   11.3512 O.2     1  UNL1       -0.2869
     18 C          18.9796  -23.4779   12.8372 C.ar    1  UNL1        0.0385
     19 C          18.7632  -22.0972   12.7868 C.ar    1  UNL1        0.0063
     20 C          19.7707  -21.2311   13.1463 C.ar    1  UNL1        0.0367
     21 C          21.0023  -21.7272   13.5598 C.ar    1  UNL1        0.1345
     22 C          21.2218  -23.0992   13.6111 C.ar    1  UNL1        0.0122
     23 C          20.2175  -23.9725   13.2586 C.ar    1  UNL1        0.0019
     24 C          22.5586  -23.6311   14.0595 C.3     1  UNL1        0.0342
     25 O          21.9928  -20.8700   13.9139 O.3     1  UNL1       -0.4758
     26 C          21.9255  -20.3075   15.2259 C.3     1  UNL1        0.2053
     27 C          21.8837  -18.7813   15.1249 C.3     1  UNL1        0.0438
     28 C          21.9010  -18.3671   13.6521 C.3     1  UNL1        0.0038
     29 C          20.6056  -18.2614   15.7860 C.3     1  UNL1        0.0038
     30 C          15.0041  -26.6518   16.1268 C.3     1  UNL1        0.1551
     31 C          14.4171  -27.9066   15.4775 C.3     1  UNL1        0.1272
     32 N          12.9524  -27.8741   15.5852 N.4     1  UNL1        0.2771
     33 H          12.6296  -28.8264   15.7560 H       1  UNL1        0.2067
     34 C          11.4580  -27.7862   17.5234 C.3     1  UNL1        0.0670
     35 C          12.5262  -27.0428   16.7189 C.3     1  UNL1        0.1056
     36 C          12.3426  -27.4085   14.3324 C.3     1  UNL1        0.1056
     37 C          13.0470  -28.0694   13.1459 C.3     1  UNL1        0.0670
@<TRIPOS>UNITY_ATOM_ATTR
7 1
charge -1
32 1
charge 1
@<TRIPOS>BOND
     1    34    35    1
     2    35    32    1
     3    32    36    1
     4    32    31    1
     5    36    37    1
     6    31    30    1
     7    30     1    1
     8     1     5   am
     9     1     2    1
    10     2     3    1
    11     2     8    1
    12     3     4    2
    13     3    16    1
    14     4     5    1
    15     4     7    1
    16     5     6    2
    17    16    17    2
    18    16    18    1
    19    18    23   ar
    20    18    19   ar
    21    19    20   ar
    22    20    21   ar
    23    21    22   ar
    24    21    25    1
    25    22    23   ar
    26    22    24    1
    27    25    26    1
    28    26    27    1
    29    27    28    1
    30    27    29    1
    31     8    13   ar
    32     8     9   ar
    33     9    10   ar
    34    10    11   ar
    35    11    12   ar
    36    11    14    1
    37    12    13   ar
    38    32    33    1
    39    14    15    1
#	Name:			ZINC20102969
#	Creating user name:	trannguyen
#	Creation time:		Wed Dec  7 14:36:19 2022


#	Modifying user name:	trannguyen
#	Modification time:	Wed Dec  7 14:36:19 2022

@<TRIPOS>MOLECULE
ZINC20102969
 37 39 0 0 0
SMALL
GASTEIGER

@<TRIPOS>ATOM
      1 C          17.4052  -25.5125   13.3145 C.3     1  UNL1        0.1297
      2 C          16.8216  -24.1098   13.6017 C.3     1  UNL1        0.0997
      3 C          15.4835  -24.3902   14.2493 C.2     1  UNL1        0.2418
      4 O          14.5897  -23.5801   14.3761 O.2     1  UNL1       -0.2733
      5 N          15.4292  -25.6677   14.6642 N.am    1  UNL1       -0.2078
      6 C          16.6816  -26.3759   14.3742 C.3     1  UNL1        0.1264
      7 N          14.3218  -26.2468   15.2974 N.am    1  UNL1       -0.2271
      8 C          13.4851  -27.0400   14.5994 C.2     1  UNL1        0.2616
      9 O          13.6912  -27.2529   13.4206 O.2     1  UNL1       -0.2686
     10 H          14.1549  -26.0743   16.2522 H       1  UNL1        0.1734
     11 C          12.3164  -27.6513   15.2677 C.ar    1  UNL1        0.0549
     12 C          12.1794  -27.5687   16.6543 C.ar    1  UNL1        0.0063
     13 C          11.0843  -28.1374   17.2712 C.ar    1  UNL1        0.0242
     14 C          10.1284  -28.7973   16.5195 C.ar    1  UNL1        0.1429
     15 C          10.2606  -28.8870   15.1452 C.ar    1  UNL1        0.0242
     16 C          11.3485  -28.3184   14.5154 C.ar    1  UNL1        0.0063
     17 N           8.9591  -29.4105   17.1888 N.pl3   1  UNL1        0.0577
     18 O           9.0759  -30.4799   17.7599 O.2     1  UNL1       -0.1261
     19 O           7.8803  -28.8456   17.1684 O.2     1  UNL1       -0.1261
     20 C          18.8958  -25.5319   13.5349 C.2     1  UNL1        0.3192
     21 O          19.4338  -26.5355   13.9392 O.2     1  UNL1       -0.2500
     22 O          19.6261  -24.4344   13.2820 O.3     1  UNL1       -0.4383
     23 C          20.9731  -24.3998   13.8229 C.3     1  UNL1        0.2927
     24 N          20.2413  -22.1357   14.4991 N.am    1  UNL1       -0.2814
     25 C          21.2075  -23.0754   14.5028 C.2     1  UNL1        0.2708
     26 O          22.2655  -22.8552   15.0533 O.2     1  UNL1       -0.2707
     27 H          19.3961  -22.3005   14.0220 H       1  UNL1        0.1549
     28 C          20.1126  -20.8173   16.5187 C.ar    1  UNL1       -0.0090
     29 C          20.3153  -19.6235   17.1830 C.ar    1  UNL1       -0.0031
     30 C          20.8317  -18.5334   16.5068 C.ar    1  UNL1       -0.0006
     31 C          21.1530  -18.6365   15.1659 C.ar    1  UNL1       -0.0031
     32 C          20.9584  -19.8293   14.4974 C.ar    1  UNL1       -0.0090
     33 C          20.4396  -20.9258   15.1734 C.ar    1  UNL1        0.0423
     34 C          20.5004  -22.4150   18.3751 C.3     1  UNL1        0.0051
     35 C          19.5436  -22.0029   17.2547 C.3     1  UNL1        0.0276
     36 C          21.3083  -19.9407   13.0358 C.3     1  UNL1        0.0276
     37 C          21.7253  -18.5676   12.5051 C.3     1  UNL1        0.0051
@<TRIPOS>BOND
     1    34    35    1
     2    35    28    1
     3    28    33   ar
     4    28    29   ar
     5    29    30   ar
     6    30    31   ar
     7    31    32   ar
     8    32    33   ar
     9    32    36    1
    10    33    24    1
    11    24    25   am
    12    25    26    2
    13    25    23    1
    14    23    22    1
    15    22    20    1
    16    20    21    2
    17    20     1    1
    18     1     6    1
    19     1     2    1
    20     2     3    1
    21     3     4    2
    22     3     5   am
    23     5     6    1
    24     5     7    1
    25     7     8   am
    26     8     9    2
    27     8    11    1
    28    11    16   ar
    29    11    12   ar
    30    12    13   ar
    31    13    14   ar
    32    14    15   ar
    33    14    17    1
    34    15    16   ar
    35    17    18    2
    36    17    19    2
    37    36    37    1
    38    24    27    1
    39     7    10    1
#	Name:			ZINC20136249
#	Creating user name:	trannguyen
#	Creation time:		Wed Dec  7 14:36:19 2022


#	Modifying user name:	trannguyen
#	Modification time:	Wed Dec  7 14:36:19 2022

@<TRIPOS>MOLECULE
ZINC20136249
 42 45 0 0 0
SMALL
GASTEIGER

@<TRIPOS>ATOM
      1 C          15.7505  -24.2951   14.1732 C.2     1  UNL1        0.2266
      2 O          14.6827  -24.5711   14.6782 O.2     1  UNL1       -0.2748
      3 N          16.8787  -24.8823   14.6191 N.am    1  UNL1       -0.2839
      4 H          17.7338  -24.7181   14.1598 H       1  UNL1        0.1549
      5 C          16.8346  -25.7257   15.7355 C.ar    1  UNL1        0.0504
      6 C          16.7716  -27.1117   15.5557 C.ar    1  UNL1        0.0162
      7 C          16.7324  -27.9545   16.6222 C.ar    1  UNL1        0.0204
      8 C          16.7447  -27.4360   17.9288 C.ar    1  UNL1        0.0825
      9 C          16.8029  -26.0334   18.1174 C.ar    1  UNL1        0.0151
     10 C          16.8477  -25.1836   17.0021 C.ar    1  UNL1        0.0159
     11 C          16.8150  -25.5170   19.4295 C.ar    1  UNL1       -0.0176
     12 C          16.7700  -26.3956   20.4699 C.ar    1  UNL1        0.0301
     13 C          16.7134  -27.7736   20.2180 C.ar    1  UNL1        0.1316
     14 N          16.7027  -28.2499   18.9903 N.ar    1  UNL1       -0.2307
     15 C          16.8758  -24.0313   19.6746 C.3     1  UNL1        0.0312
     16 N          16.6679  -28.6564   21.2876 N.pl3   1  UNL1       -0.2824
     17 C          15.3770  -28.5730   21.9848 C.3     1  UNL1        0.1537
     18 C          15.3369  -29.6149   23.1052 C.3     1  UNL1        0.1275
     19 N          16.4503  -29.3749   24.0339 N.4     1  UNL1        0.2830
     20 C          17.7412  -29.4583   23.3367 C.3     1  UNL1        0.1275
     21 C          17.7813  -28.4164   22.2163 C.3     1  UNL1        0.1537
     22 C          16.4022  -30.3094   25.1663 C.3     1  UNL1        0.1673
     23 H          16.3530  -28.4295   24.4043 H       1  UNL1        0.2071
     24 C          15.8156  -23.2956   13.0472 C.3     1  UNL1        0.0949
     25 C          16.5392  -23.9199   11.8524 C.3     1  UNL1        0.0946
     26 N          18.5988  -22.8893   12.7548 N.am    1  UNL1       -0.3043
     27 C          17.8807  -23.2566   11.6750 C.2     1  UNL1        0.2230
     28 O          18.3141  -23.0533   10.5606 O.2     1  UNL1       -0.2751
     29 H          18.2470  -23.0543   13.6594 H       1  UNL1        0.1494
     30 C          19.9029  -22.2444   12.5823 C.3     1  UNL1        0.0911
     31 C          20.4924  -21.9110   13.9543 C.3     1  UNL1        0.0426
     32 C          19.5094  -22.3331   15.0480 C.3     1  UNL1        0.0925
     33 N          20.2413  -22.5839   16.2921 N.pl3   1  UNL1       -0.3074
     34 C          20.3290  -23.8815   16.8015 C.ar    1  UNL1        0.0475
     35 C          20.3864  -24.9668   15.9359 C.ar    1  UNL1        0.0145
     36 C          20.4774  -26.2480   16.4427 C.ar    1  UNL1        0.0009
     37 C          20.5012  -26.4522   17.8104 C.ar    1  UNL1       -0.0042
     38 C          20.4394  -25.3747   18.6747 C.ar    1  UNL1       -0.0206
     39 C          20.3532  -24.0902   18.1744 C.ar    1  UNL1        0.0103
     40 C          20.4657  -25.6021   20.1643 C.3     1  UNL1        0.0311
     41 C          19.8275  -20.4256   17.3655 C.3     1  UNL1        0.0232
     42 C          20.8813  -21.4736   17.0020 C.3     1  UNL1        0.0908
@<TRIPOS>UNITY_ATOM_ATTR
19 1
charge 1
@<TRIPOS>BOND
     1    41    42    1
     2    42    33    1
     3    33    32    1
     4    33    34    1
     5    32    31    1
     6    31    30    1
     7    30    26    1
     8    26    27   am
     9    27    28    2
    10    27    25    1
    11    25    24    1
    12    24     1    1
    13     1     2    2
    14     1     3   am
    15     3     5    1
    16     5    10   ar
    17     5     6   ar
    18     6     7   ar
    19     7     8   ar
    20     8    14   ar
    21     8     9   ar
    22     9    10   ar
    23     9    11   ar
    24    11    12   ar
    25    11    15    1
    26    12    13   ar
    27    13    14   ar
    28    13    16    1
    29    16    21    1
    30    16    17    1
    31    17    18    1
    32    18    19    1
    33    19    20    1
    34    19    22    1
    35    20    21    1
    36    34    39   ar
    37    34    35   ar
    38    35    36   ar
    39    36    37   ar
    40    37    38   ar
    41    38    39   ar
    42    38    40    1
    43    26    29    1
    44     3     4    1
    45    19    23    1
#	Name:			ZINC20171717
#	Creating user name:	trannguyen
#	Creation time:		Wed Dec  7 14:36:20 2022


#	Modifying user name:	trannguyen
#	Modification time:	Wed Dec  7 14:36:20 2022

@<TRIPOS>MOLECULE
ZINC20171717
 38 40 0 0 0
SMALL
GASTEIGER

@<TRIPOS>ATOM
      1 C          19.5123  -25.7780   16.8298 C.2     1  UNL1        0.0834
      2 C          18.6279  -24.7588   17.0106 C.2     1  UNL1        0.0737
      3 C          18.9906  -23.5896   17.8890 C.3     1  UNL1        0.0889
      4 C          19.8698  -24.0738   19.0435 C.2     1  UNL1        0.1104
      5 C          20.9678  -24.9535   18.5064 C.2     1  UNL1        0.1936
      6 O          22.0604  -24.9415   19.0324 O.2     1  UNL1       -0.4948
      7 N          20.7456  -25.7526   17.4464 N.pl3   1  UNL1       -0.2793
      8 H          22.2189  -24.3866   19.7706 H       1  UNL1        0.2935
      9 H          21.4712  -26.3250   17.1075 H       1  UNL1        0.1555
     10 C          19.7440  -22.5667   17.0784 C.ar    1  UNL1       -0.0130
     11 C          19.9003  -22.7446   15.7162 C.ar    1  UNL1       -0.0005
     12 C          20.5856  -21.8055   14.9699 C.ar    1  UNL1        0.0366
     13 C          21.1274  -20.6892   15.5904 C.ar    1  UNL1        0.1385
     14 C          20.9740  -20.5159   16.9583 C.ar    1  UNL1        0.0366
     15 C          20.2826  -21.4547   17.6991 C.ar    1  UNL1       -0.0005
     16 O          21.8076  -19.7671   14.8595 O.3     1  UNL1       -0.4755
     17 C          21.0386  -18.7320   14.2437 C.3     1  UNL1        0.2055
     18 C          21.7873  -18.2001   13.0199 C.3     1  UNL1        0.0512
     19 C          19.0305  -24.8577   20.0192 C.2     1  UNL1        0.3422
     20 O          18.0519  -24.3526   20.5163 O.2     1  UNL1       -0.2451
     21 O          19.3699  -26.1170   20.3362 O.3     1  UNL1       -0.4414
     22 C          18.2980  -27.0043   20.7508 C.3     1  UNL1        0.2559
     23 C          17.3507  -24.7979   16.3643 C.1     1  UNL1        0.0985
     24 N          16.3375  -24.8289   15.8515 N.1     1  UNL1       -0.1911
     25 S          19.0780  -27.1400   15.7998 S.3     1  UNL1       -0.0889
     26 C          19.4541  -26.4376   14.1746 C.3     1  UNL1        0.1484
     27 N          21.0005  -26.9097   12.3026 N.am    1  UNL1       -0.2832
     28 C          20.6292  -27.1643   13.5730 C.2     1  UNL1        0.2375
     29 O          21.2410  -27.9782   14.2321 O.2     1  UNL1       -0.2738
     30 H          20.4639  -26.3005   11.7457 H       1  UNL1        0.1549
     31 C          24.4183  -28.7008   10.7319 C.ar    1  UNL1       -0.0221
     32 C          23.1811  -29.2874   10.5385 C.ar    1  UNL1       -0.0030
     33 C          22.0461  -28.6962   11.0581 C.ar    1  UNL1        0.0143
     34 C          22.1484  -27.5114   11.7752 C.ar    1  UNL1        0.0503
     35 C          23.3917  -26.9219   11.9628 C.ar    1  UNL1        0.0143
     36 C          24.5235  -27.5210   11.4455 C.ar    1  UNL1       -0.0030
     37 C          26.8256  -28.3671   10.2394 C.3     1  UNL1        0.0050
     38 C          25.6547  -29.3490   10.1643 C.3     1  UNL1        0.0264
@<TRIPOS>BOND
     1    37    38    1
     2    38    31    1
     3    31    36   ar
     4    31    32   ar
     5    32    33   ar
     6    33    34   ar
     7    34    35   ar
     8    34    27    1
     9    35    36   ar
    10    27    28   am
    11    28    29    2
    12    28    26    1
    13    26    25    1
    14    25     1    1
    15     1     7    1
    16     1     2    2
    17     2     3    1
    18     2    23    1
    19     3     4    1
    20     3    10    1
    21     4     5    2
    22     4    19    1
    23     5     6    1
    24     5     7    1
    25    19    20    2
    26    19    21    1
    27    21    22    1
    28    10    15   ar
    29    10    11   ar
    30    11    12   ar
    31    12    13   ar
    32    13    14   ar
    33    13    16    1
    34    14    15   ar
    35    16    17    1
    36    17    18    1
    37    23    24    3
    38    27    30    1
    39     6     8    1
    40     7     9    1
#	Name:			ZINC20292462
#	Creating user name:	trannguyen
#	Creation time:		Wed Dec  7 14:36:19 2022


#	Modifying user name:	trannguyen
#	Modification time:	Wed Dec  7 14:36:19 2022

@<TRIPOS>MOLECULE
ZINC20292462
 39 42 0 0 0
SMALL
GASTEIGER

@<TRIPOS>ATOM
      1 C          11.6097  -27.0083   14.0722 C.ar    1  UNL1        0.2107
      2 N          11.2667  -25.8012   14.4541 N.ar    1  UNL1       -0.1192
      3 N          12.3709  -25.2182   15.0895 N.ar    1  UNL1       -0.1092
      4 C          13.3505  -26.0894   15.0796 C.ar    1  UNL1        0.2542
      5 N          12.9042  -27.2198   14.4532 N.ar    1  UNL1       -0.2106
      6 N          13.6278  -28.3587   14.2406 N.pl3   1  UNL1       -0.2936
      7 H          13.2165  -29.1240   13.7775 H       1  UNL1        0.1628
      8 H          14.5607  -28.4143   14.5504 H       1  UNL1        0.1628
      9 N          14.6175  -25.8980   15.6118 N.pl3   1  UNL1       -0.2033
     10 H          14.7690  -26.0174   16.5772 H       1  UNL1        0.1775
     11 N          15.6811  -25.5350   14.7754 N.2     1  UNL1       -0.1774
     12 C          15.6331  -24.4207   14.1103 C.2     1  UNL1        0.1177
     13 C          16.7525  -24.0387   13.2301 C.ar    1  UNL1        0.0237
     14 C          16.5608  -23.9534   11.8483 C.ar    1  UNL1        0.0018
     15 C          17.6092  -23.5905   11.0287 C.ar    1  UNL1        0.0032
     16 C          18.8536  -23.3205   11.5683 C.ar    1  UNL1        0.0375
     17 C          19.0557  -23.4079   12.9394 C.ar    1  UNL1        0.1453
     18 C          18.0095  -23.7662   13.7730 C.ar    1  UNL1        0.0391
     19 O          20.2811  -23.1422   13.4635 O.3     1  UNL1       -0.4535
     20 C          20.4995  -21.9042   13.9794 C.ar    1  UNL1        0.1453
     21 C          20.8295  -20.8498   13.1401 C.ar    1  UNL1        0.0375
     22 C          21.0459  -19.5912   13.6666 C.ar    1  UNL1        0.0031
     23 C          20.9445  -19.3839   15.0299 C.ar    1  UNL1        0.0002
     24 C          20.6210  -20.4341   15.8691 C.ar    1  UNL1        0.0031
     25 C          20.3985  -21.6936   15.3471 C.ar    1  UNL1        0.0375
     26 S          10.5799  -28.1570   13.2209 S.3     1  UNL1       -0.0658
     27 C           9.5390  -28.8649   14.5271 C.3     1  UNL1        0.1340
     28 C          10.4144  -29.4549   15.6027 C.2     1  UNL1        0.1844
     29 O          11.2698  -30.2642   15.3121 O.2     1  UNL1       -0.2904
     30 C           9.8822  -28.2885   19.6475 C.ar    1  UNL1        0.1724
     31 C           9.0095  -29.2007   19.0676 C.ar    1  UNL1        0.0401
     32 C           9.1744  -29.5770   17.7536 C.ar    1  UNL1        0.0062
     33 C          10.2318  -29.0498   17.0024 C.ar    1  UNL1        0.0388
     34 C          11.1113  -28.1307   17.5880 C.ar    1  UNL1        0.0429
     35 C          10.9343  -27.7540   18.9040 C.ar    1  UNL1        0.1725
     36 C           8.6977  -28.5987   21.6841 C.3     1  UNL1        0.2526
     37 O           9.7107  -27.9167   20.9418 O.3     1  UNL1       -0.4684
     38 O          11.7865  -26.8618   19.4761 O.3     1  UNL1       -0.4684
     39 C          13.1129  -27.3165   19.7517 C.3     1  UNL1        0.2526
@<TRIPOS>BOND
     1    36    37    1
     2    37    30    1
     3    30    35   ar
     4    30    31   ar
     5    31    32   ar
     6    32    33   ar
     7    33    34   ar
     8    33    28    1
     9    34    35   ar
    10    35    38    1
    11    38    39    1
    12    28    29    2
    13    28    27    1
    14    27    26    1
    15    26     1    1
    16     1     5   ar
    17     1     2   ar
    18     2     3   ar
    19     3     4   ar
    20     4     5   ar
    21     4     9    1
    22     5     6    1
    23     9    11    1
    24    11    12    2
    25    12    13    1
    26    13    18   ar
    27    13    14   ar
    28    14    15   ar
    29    15    16   ar
    30    16    17   ar
    31    17    18   ar
    32    17    19    1
    33    19    20    1
    34    20    25   ar
    35    20    21   ar
    36    21    22   ar
    37    22    23   ar
    38    23    24   ar
    39    24    25   ar
    40     6     7    1
    41     6     8    1
    42     9    10    1
#	Name:			ZINC20329068
#	Creating user name:	trannguyen
#	Creation time:		Wed Dec  7 14:36:19 2022


#	Modifying user name:	trannguyen
#	Modification time:	Wed Dec  7 14:36:19 2022

@<TRIPOS>MOLECULE
ZINC20329068
 37 41 0 0 0
SMALL
GASTEIGER

@<TRIPOS>ATOM
      1 C          14.3912  -26.8044   15.1877 C.3     1  UNL1        0.1077
      2 C          10.9847  -28.2235   22.3225 C.ar    1  UNL1        0.1388
      3 C           9.6823  -27.9930   21.8850 C.ar    1  UNL1        0.0384
      4 C           9.4335  -27.6497   20.5759 C.ar    1  UNL1        0.0200
      5 C          10.4871  -27.5291   19.6731 C.ar    1  UNL1        0.0551
      6 C          11.8040  -27.7612   20.1120 C.ar    1  UNL1       -0.0021
      7 C          12.0432  -28.1092   21.4453 C.ar    1  UNL1        0.0366
      8 C          12.6702  -27.5603   18.9510 C.ar    1  UNL1       -0.0957
      9 C          11.8479  -27.2238   17.8914 C.ar    1  UNL1        0.0910
     10 N          10.5354  -27.2070   18.3336 N.ar    1  UNL1       -0.3509
     11 C          12.4411  -26.9663   16.6283 C.ar    1  UNL1        0.2737
     12 O          11.7475  -26.6625   15.6744 O.2     1  UNL1       -0.2655
     13 N          13.7782  -27.0654   16.4925 N.ar    1  UNL1       -0.3091
     14 C          14.5592  -27.3946   17.5358 C.ar    1  UNL1       -0.0161
     15 S          16.2534  -27.5014   17.3140 S.2     1  UNL1       -0.0582
     16 N          14.0367  -27.6417   18.7521 N.ar    1  UNL1       -0.6374
     17 H           9.7531  -26.9963   17.7743 H       1  UNL1        0.1660
     18 C          10.0679  -28.7447   24.4542 C.3     1  UNL1        0.2525
     19 O          11.2134  -28.5620   23.6196 O.3     1  UNL1       -0.4714
     20 C          14.7866  -25.3293   15.0958 C.3     1  UNL1        0.0246
     21 C          15.7686  -25.1356   13.9385 C.3     1  UNL1        0.0025
     22 C          15.7794  -23.6641   13.5197 C.3     1  UNL1        0.0096
     23 C          16.1402  -23.5586   12.0366 C.3     1  UNL1        0.0851
     24 C          17.6254  -23.3467   11.8948 C.2     1  UNL1        0.2227
     25 O          18.2488  -23.9636   11.0572 O.2     1  UNL1       -0.2751
     26 N          18.2610  -22.4715   12.6990 N.am    1  UNL1       -0.3004
     27 H          17.7550  -21.9707   13.3790 H       1  UNL1        0.1497
     28 C          19.7049  -22.2655   12.5613 C.3     1  UNL1        0.1164
     29 C          20.2003  -21.4067   13.6962 C.ar    1  UNL1        0.0006
     30 C          20.1136  -21.8658   14.9973 C.ar    1  UNL1        0.0007
     31 C          20.5720  -21.0841   16.0414 C.ar    1  UNL1        0.0399
     32 C          21.1149  -19.8353   15.7860 C.ar    1  UNL1        0.1764
     33 C          21.1974  -19.3706   14.4757 C.ar    1  UNL1        0.1762
     34 C          20.7353  -20.1592   13.4346 C.ar    1  UNL1        0.0376
     35 O          21.7639  -18.1287   14.4881 O.3     1  UNL1       -0.4346
     36 C          22.3999  -18.0092   15.7743 C.3     1  UNL1        0.4294
     37 O          21.6299  -18.8847   16.6193 O.3     1  UNL1       -0.4346
@<TRIPOS>UNITY_ATOM_ATTR
16 1
charge -1
@<TRIPOS>BOND
     1    18    19    1
     2    19     2    1
     3     2     7   ar
     4     2     3   ar
     5     3     4   ar
     6     4     5   ar
     7     5    10   ar
     8     5     6   ar
     9     6     7   ar
    10     6     8   ar
    11     8    16   ar
    12     8     9   ar
    13     9    10   ar
    14     9    11   ar
    15    11    12    2
    16    11    13   ar
    17    13    14   ar
    18    13     1    1
    19    14    15    2
    20    14    16   ar
    21     1    20    1
    22    20    21    1
    23    21    22    1
    24    22    23    1
    25    23    24    1
    26    24    25    2
    27    24    26   am
    28    26    28    1
    29    28    29    1
    30    29    34   ar
    31    29    30   ar
    32    30    31   ar
    33    31    32   ar
    34    32    37    1
    35    32    33   ar
    36    33    34   ar
    37    33    35    1
    38    35    36    1
    39    36    37    1
    40    10    17    1
    41    26    27    1
#	Name:			ZINC20375512
#	Creating user name:	trannguyen
#	Creation time:		Wed Dec  7 14:36:19 2022


#	Modifying user name:	trannguyen
#	Modification time:	Wed Dec  7 14:36:19 2022

@<TRIPOS>MOLECULE
ZINC20375512
 42 46 0 0 0
SMALL
GASTEIGER

@<TRIPOS>ATOM
      1 C          20.4803  -21.3654   15.8442 C.ar    1  UNL1        0.0550
      2 C          20.2423  -22.5731   15.2166 C.ar    1  UNL1        0.0039
      3 C          20.2017  -22.6401   13.8364 C.ar    1  UNL1        0.0324
      4 C          20.3986  -21.4990   13.0804 C.ar    1  UNL1        0.0047
      5 C          20.6359  -20.2891   13.7030 C.ar    1  UNL1        0.0366
      6 C          20.6728  -20.2184   15.0882 C.ar    1  UNL1        0.1382
      7 C          19.9420  -23.9586   13.1545 C.3     1  UNL1        0.1137
      8 C          19.8958  -25.0623   14.1847 C.ar    1  UNL1        0.0841
      9 C          18.7412  -25.6161   14.6203 C.ar    1  UNL1        0.0026
     10 C          19.0925  -26.6294   15.5899 C.ar    1  UNL1        0.0131
     11 C          18.3309  -27.5144   16.3596 C.ar    1  UNL1        0.0012
     12 C          19.0172  -28.3595   17.1961 C.ar    1  UNL1        0.0001
     13 C          20.3996  -28.3461   17.2837 C.ar    1  UNL1        0.0015
     14 C          21.1783  -27.4811   16.5348 C.ar    1  UNL1        0.0170
     15 C          20.5092  -26.6120   15.6758 C.ar    1  UNL1        0.0562
     16 N          20.9580  -25.6523   14.8137 N.ar    1  UNL1       -0.3521
     17 C          17.3793  -25.1929   14.1302 C.3     1  UNL1        0.0886
     18 CA         17.5295  -23.8405   13.4201 C.3     1  UNL1        0.0944
     19 N          18.6433  -23.9108   12.4637 N.4     1  UNL1        0.2576
     20 H          21.9034  -25.4201   14.6670 H       1  UNL1        0.1658
     21 H1         18.5392  -24.7506   11.8943 H       1  UNL1        0.2042
     22 H2         18.6199  -23.0736   11.8815 H       1  UNL1        0.2042
     23 C          16.2553  -23.5150   12.6844 C.2     1  UNL1        0.1000
     24 O          15.3336  -22.9996   13.2714 O.co2   1  UNL1       -0.5437
     25 OXT        16.1443  -23.7978   11.3769 O.co2   1  UNL1       -0.5437
     26 O          20.9014  -19.0283   15.7032 O.3     1  UNL1       -0.4716
     27 C          22.1463  -18.3836   15.4264 C.3     1  UNL1        0.2525
     28 C          20.5244  -21.2932   17.3488 C.3     1  UNL1        0.2350
     29 O          21.3428  -22.3507   17.8526 O.3     1  UNL1       -0.4705
     30 C          19.4277  -25.4124   19.8518 C.ar    1  UNL1        0.0758
     31 C          18.6883  -24.3511   19.3217 C.ar    1  UNL1        0.0096
     32 C          19.3312  -23.3309   18.6572 C.ar    1  UNL1        0.0371
     33 C          20.7136  -23.3553   18.5131 C.ar    1  UNL1        0.1391
     34 C          21.4527  -24.4088   19.0387 C.ar    1  UNL1        0.0371
     35 C          20.8177  -25.4330   19.7046 C.ar    1  UNL1        0.0096
     36 C          18.7432  -26.5075   20.5639 C.2     1  UNL1        0.3412
     37 O          19.2231  -27.6238   20.5666 O.2     1  UNL1       -0.2449
     38 O          17.5857  -26.2701   21.2116 O.3     1  UNL1       -0.4454
     39 C          16.4881  -27.1861   20.9571 C.3     1  UNL1        0.2086
     40 C          15.6104  -26.8109   18.6481 C.3     1  UNL1        0.0038
     41 C          15.4145  -26.4778   20.1285 C.3     1  UNL1        0.0439
     42 C          14.0300  -26.9486   20.5784 C.3     1  UNL1        0.0038
@<TRIPOS>UNITY_ATOM_ATTR
19 1
charge 1
25 1
charge -1
@<TRIPOS>BOND
     1    40    41    1
     2    41    42    1
     3    41    39    1
     4    39    38    1
     5    38    36    1
     6    36    37    2
     7    36    30    1
     8    30    35   ar
     9    30    31   ar
    10    31    32   ar
    11    32    33   ar
    12    33    34   ar
    13    33    29    1
    14    34    35   ar
    15    29    28    1
    16    28     1    1
    17     1     6   ar
    18     1     2   ar
    19     2     3   ar
    20     3     4   ar
    21     3     7    1
    22     4     5   ar
    23     5     6   ar
    24     6    26    1
    25    26    27    1
    26     7    19    1
    27     7     8    1
    28     8    16   ar
    29     8     9   ar
    30     9    10   ar
    31     9    17    1
    32    10    15   ar
    33    10    11   ar
    34    11    12   ar
    35    12    13   ar
    36    13    14   ar
    37    14    15   ar
    38    15    16   ar
    39    17    18    1
    40    18    19    1
    41    18    23    1
    42    23    24   ar
    43    23    25   ar
    44    16    20    1
    45    19    21    1
    46    19    22    1
#	Name:			ZINC20424438
#	Creating user name:	trannguyen
#	Creation time:		Wed Dec  7 14:36:20 2022


#	Modifying user name:	trannguyen
#	Modification time:	Wed Dec  7 14:36:20 2022

@<TRIPOS>MOLECULE
ZINC20424438
 39 42 0 0 0
SMALL
GASTEIGER

@<TRIPOS>ATOM
      1 C          11.7206  -27.0041   14.0790 C.ar    1  UNL1        0.2112
      2 N          12.9697  -27.4852   14.3513 N.ar    1  UNL1       -0.1864
      3 C          13.6564  -26.5177   15.0309 C.ar    1  UNL1        0.2317
      4 N          12.8645  -25.4825   15.1722 N.ar    1  UNL1       -0.2446
      5 N          11.6379  -25.7903   14.5692 N.ar    1  UNL1       -0.1443
      6 H          13.0919  -24.6372   15.6229 H       1  UNL1        0.1919
      7 N          14.9619  -26.6146   15.4904 N.pl3   1  UNL1       -0.2048
      8 H          15.2709  -27.4427   15.9241 H       1  UNL1        0.1775
      9 N          15.8404  -25.5341   15.3372 N.2     1  UNL1       -0.1774
     10 C          16.7552  -25.5666   14.4160 C.2     1  UNL1        0.1177
     11 C          17.6795  -24.4297   14.2547 C.ar    1  UNL1        0.0239
     12 C          17.4591  -23.4850   13.2490 C.ar    1  UNL1        0.0049
     13 C          18.3219  -22.4190   13.1037 C.ar    1  UNL1        0.0401
     14 C          19.4155  -22.2875   13.9468 C.ar    1  UNL1        0.1725
     15 C          19.6450  -23.2287   14.9477 C.ar    1  UNL1        0.1747
     16 C          18.7815  -24.2970   15.1034 C.ar    1  UNL1        0.0417
     17 O          20.2658  -21.2373   13.7957 O.3     1  UNL1       -0.4684
     18 C          21.3482  -21.4059   12.8779 C.3     1  UNL1        0.2526
     19 O          20.7187  -23.0965   15.7720 O.3     1  UNL1       -0.4490
     20 C          20.4763  -22.5509   17.0704 C.3     1  UNL1        0.3386
     21 N          20.6141  -23.6063   18.0770 N.ar    1  UNL1       -0.2084
     22 C          19.6097  -24.1653   18.7839 C.ar    1  UNL1        0.1006
     23 C          20.1505  -25.0964   19.6036 C.ar    1  UNL1        0.0428
     24 C          21.5328  -25.1067   19.3902 C.ar    1  UNL1        0.1218
     25 N          21.8112  -24.2179   18.4713 N.ar    1  UNL1       -0.1646
     26 S          10.4446  -27.8630   13.2196 S.3     1  UNL1       -0.0642
     27 C          10.3322  -29.4564   14.0793 C.3     1  UNL1        0.1502
     28 N          10.7043  -29.4875   16.5246 N.am    1  UNL1       -0.2832
     29 C           9.8714  -29.2311   15.4965 C.2     1  UNL1        0.2376
     30 O           8.7512  -28.8192   15.7117 O.2     1  UNL1       -0.2738
     31 H          11.5846  -29.8945   16.3553 H       1  UNL1        0.1549
     32 C           9.1386  -28.2214   21.8284 C.3     1  UNL1        0.0307
     33 C           9.5543  -28.5576   20.4194 C.ar    1  UNL1       -0.0257
     34 C           9.2359  -29.7915   19.8819 C.ar    1  UNL1       -0.0033
     35 C           9.6100  -30.1003   18.5889 C.ar    1  UNL1        0.0143
     36 C          10.3179  -29.1751   17.8327 C.ar    1  UNL1        0.0500
     37 C          10.6363  -27.9374   18.3753 C.ar    1  UNL1        0.0101
     38 C          10.2535  -27.6321   19.6670 C.ar    1  UNL1       -0.0246
     39 C          10.5987  -26.2889   20.2568 C.3     1  UNL1        0.0307
@<TRIPOS>BOND
     1    32    33    1
     2    33    38   ar
     3    33    34   ar
     4    34    35   ar
     5    35    36   ar
     6    36    37   ar
     7    36    28    1
     8    37    38   ar
     9    38    39    1
    10    28    29   am
    11    29    30    2
    12    29    27    1
    13    27    26    1
    14    26     1    1
    15     1     5   ar
    16     1     2   ar
    17     2     3   ar
    18     3     4   ar
    19     3     7    1
    20     4     5   ar
    21     7     9    1
    22     9    10    2
    23    10    11    1
    24    11    16   ar
    25    11    12   ar
    26    12    13   ar
    27    13    14   ar
    28    14    15   ar
    29    14    17    1
    30    15    16   ar
    31    15    19    1
    32    19    20    1
    33    20    21    1
    34    21    25   ar
    35    21    22   ar
    36    22    23   ar
    37    23    24   ar
    38    24    25   ar
    39    17    18    1
    40    28    31    1
    41     4     6    1
    42     7     8    1
#	Name:			ZINC20424653
#	Creating user name:	trannguyen
#	Creation time:		Wed Dec  7 14:36:20 2022


#	Modifying user name:	trannguyen
#	Modification time:	Wed Dec  7 14:36:20 2022

@<TRIPOS>MOLECULE
ZINC20424653
 39 42 0 0 0
SMALL
GASTEIGER

@<TRIPOS>ATOM
      1 C          11.5800  -27.2225   13.9193 C.ar    1  UNL1        0.2112
      2 N          12.8717  -27.2868   14.3596 N.ar    1  UNL1       -0.1864
      3 C          13.1651  -26.1051   14.9822 C.ar    1  UNL1        0.2317
      4 N          12.0991  -25.3434   14.9284 N.ar    1  UNL1       -0.2446
      5 N          11.0967  -26.0490   14.2501 N.ar    1  UNL1       -0.1443
      6 H          12.0175  -24.4352   15.2995 H       1  UNL1        0.1919
      7 N          14.3770  -25.7710   15.5671 N.pl3   1  UNL1       -0.2047
      8 H          14.5570  -26.0188   16.5028 H       1  UNL1        0.1775
      9 N          15.3455  -25.0807   14.8265 N.2     1  UNL1       -0.1742
     10 C          15.5624  -25.3983   13.5825 C.2     1  UNL1        0.1551
     11 C          16.5749  -24.6767   12.8084 C.ar    1  UNL1        0.1694
     12 C          16.4116  -24.1705   11.5513 C.ar    1  UNL1        0.0458
     13 C          17.6295  -23.5624   11.1969 C.ar    1  UNL1        0.0811
     14 C          18.4740  -23.7235   12.2451 C.ar    1  UNL1        0.2970
     15 O          17.8300  -24.3916   13.2167 O.2     1  UNL1       -0.4221
     16 O          19.7543  -23.2792   12.3051 O.3     1  UNL1       -0.4429
     17 C          20.5280  -23.6810   13.4372 C.3     1  UNL1        0.2353
     18 C          20.8396  -22.4756   14.2862 C.ar    1  UNL1        0.0215
     19 C          21.9919  -21.7474   14.0545 C.ar    1  UNL1        0.0024
     20 C          22.2769  -20.6386   14.8277 C.ar    1  UNL1        0.0367
     21 C          21.4115  -20.2627   15.8447 C.ar    1  UNL1        0.1387
     22 C          20.2588  -20.9982   16.0789 C.ar    1  UNL1        0.0367
     23 C          19.9755  -22.1029   15.2992 C.ar    1  UNL1        0.0024
     24 O          21.6923  -19.1753   16.6101 O.3     1  UNL1       -0.4714
     25 C          21.3947  -17.8942   16.0512 C.3     1  UNL1        0.2525
     26 S          10.7172  -28.4909   13.0524 S.3     1  UNL1       -0.0642
     27 C           9.2721  -28.8303   14.0952 C.3     1  UNL1        0.1499
     28 N          10.7305  -30.0675   15.6639 N.am    1  UNL1       -0.2997
     29 C           9.7290  -29.1831   15.4873 C.2     1  UNL1        0.2342
     30 O           9.1955  -28.6711   16.4486 O.2     1  UNL1       -0.2741
     31 H          11.1636  -30.4830   14.8835 H       1  UNL1        0.1498
     32 C          11.1746  -30.4105   17.0172 C.3     1  UNL1        0.1163
     33 C          15.7760  -27.2017   18.4048 C.3     1  UNL1        0.0310
     34 C          14.5760  -28.0385   18.0427 C.ar    1  UNL1       -0.0219
     35 C          14.7274  -29.1527   17.2388 C.ar    1  UNL1       -0.0045
     36 C          13.6267  -29.9202   16.9066 C.ar    1  UNL1       -0.0029
     37 C          12.3746  -29.5739   17.3792 C.ar    1  UNL1       -0.0026
     38 C          12.2224  -28.4569   18.1792 C.ar    1  UNL1       -0.0029
     39 C          13.3238  -27.6919   18.5149 C.ar    1  UNL1       -0.0045
@<TRIPOS>BOND
     1    33    34    1
     2    34    39   ar
     3    34    35   ar
     4    35    36   ar
     5    36    37   ar
     6    37    38   ar
     7    37    32    1
     8    38    39   ar
     9    32    28    1
    10    28    29   am
    11    29    30    2
    12    29    27    1
    13    27    26    1
    14    26     1    1
    15     1     5   ar
    16     1     2   ar
    17     2     3   ar
    18     3     4   ar
    19     3     7    1
    20     4     5   ar
    21     7     9    1
    22     9    10    2
    23    10    11    1
    24    11    15   ar
    25    11    12   ar
    26    12    13   ar
    27    13    14   ar
    28    14    15   ar
    29    14    16    1
    30    16    17    1
    31    17    18    1
    32    18    23   ar
    33    18    19   ar
    34    19    20   ar
    35    20    21   ar
    36    21    22   ar
    37    21    24    1
    38    22    23   ar
    39    24    25    1
    40    28    31    1
    41     4     6    1
    42     7     8    1
#	Name:			ZINC20424718
#	Creating user name:	trannguyen
#	Creation time:		Wed Dec  7 14:36:19 2022


#	Modifying user name:	trannguyen
#	Modification time:	Wed Dec  7 14:36:19 2022

@<TRIPOS>MOLECULE
ZINC20424718
 39 42 0 0 0
SMALL
GASTEIGER

@<TRIPOS>ATOM
      1 C          24.5768  -27.1540   10.8077 C.ar    1  UNL1        0.2112
      2 N          24.6032  -26.3290   11.8963 N.ar    1  UNL1       -0.1864
      3 C          24.7908  -25.0493   11.4523 C.ar    1  UNL1        0.2317
      4 N          24.8711  -25.0824   10.1438 N.ar    1  UNL1       -0.2446
      5 N          24.7412  -26.4163    9.7358 N.ar    1  UNL1       -0.1443
      6 H          24.9999  -24.3061    9.5521 H       1  UNL1        0.1919
      7 N          24.8755  -23.9154   12.2457 N.pl3   1  UNL1       -0.2047
      8 H          25.7540  -23.5175   12.4433 H       1  UNL1        0.1775
      9 N          23.7109  -23.3359   12.7661 N.2     1  UNL1       -0.1742
     10 C          23.2446  -23.7312   13.9156 C.2     1  UNL1        0.1551
     11 C          22.0271  -23.1254   14.4596 C.ar    1  UNL1        0.1694
     12 C          20.9946  -22.6096   13.7308 C.ar    1  UNL1        0.0458
     13 C          20.0411  -22.1410   14.6529 C.ar    1  UNL1        0.0811
     14 C          20.5343  -22.3826   15.8922 C.ar    1  UNL1        0.2970
     15 O          21.7316  -22.9795   15.7691 O.2     1  UNL1       -0.4221
     16 O          19.9189  -22.0777   17.0620 O.3     1  UNL1       -0.4429
     17 C          20.4729  -22.6409   18.2526 C.3     1  UNL1        0.2353
     18 C          19.4995  -23.6297   18.8408 C.ar    1  UNL1        0.0215
     19 C          19.9603  -24.8229   19.3657 C.ar    1  UNL1        0.0024
     20 C          19.0707  -25.7285   19.9106 C.ar    1  UNL1        0.0367
     21 C          17.7127  -25.4447   19.9205 C.ar    1  UNL1        0.1387
     22 C          17.2523  -24.2493   19.3881 C.ar    1  UNL1        0.0367
     23 C          18.1467  -23.3446   18.8495 C.ar    1  UNL1        0.0024
     24 O          16.8349  -26.3362   20.4514 O.3     1  UNL1       -0.4714
     25 C          15.5835  -26.4932   19.7796 C.3     1  UNL1        0.2525
     26 S          24.3610  -28.9025   10.8384 S.3     1  UNL1       -0.0642
     27 C          22.5993  -29.1337   10.4731 C.3     1  UNL1        0.1502
     28 N          21.6868  -27.2770   11.8291 N.am    1  UNL1       -0.2831
     29 C          21.7751  -28.6053   11.6188 C.2     1  UNL1        0.2376
     30 O          21.1914  -29.3755   12.3517 O.2     1  UNL1       -0.2738
     31 H          22.2143  -26.6551   11.2774 H       1  UNL1        0.1549
     32 C          18.2711  -25.2686   15.8913 C.3     1  UNL1        0.0334
     33 C          19.1787  -25.8019   14.8129 C.ar    1  UNL1        0.0057
     34 C          18.7600  -25.8001   13.4952 C.ar    1  UNL1       -0.0008
     35 C          19.5916  -26.2823   12.5037 C.ar    1  UNL1        0.0145
     36 C          20.8456  -26.7819   12.8316 C.ar    1  UNL1        0.0526
     37 C          21.2649  -26.7837   14.1549 C.ar    1  UNL1        0.0440
     38 C          20.4305  -26.2933   15.1436 C.ar    1  UNL1        0.1374
     39 F          20.8370  -26.2942   16.4320 F       1  UNL1       -0.2045
@<TRIPOS>BOND
     1    32    33    1
     2    33    38   ar
     3    33    34   ar
     4    34    35   ar
     5    35    36   ar
     6    36    37   ar
     7    36    28    1
     8    37    38   ar
     9    38    39    1
    10    28    29   am
    11    29    30    2
    12    29    27    1
    13    27    26    1
    14    26     1    1
    15     1     5   ar
    16     1     2   ar
    17     2     3   ar
    18     3     4   ar
    19     3     7    1
    20     4     5   ar
    21     7     9    1
    22     9    10    2
    23    10    11    1
    24    11    15   ar
    25    11    12   ar
    26    12    13   ar
    27    13    14   ar
    28    14    15   ar
    29    14    16    1
    30    16    17    1
    31    17    18    1
    32    18    23   ar
    33    18    19   ar
    34    19    20   ar
    35    20    21   ar
    36    21    22   ar
    37    21    24    1
    38    22    23   ar
    39    24    25    1
    40    28    31    1
    41     4     6    1
    42     7     8    1
#	Name:			ZINC20424784
#	Creating user name:	trannguyen
#	Creation time:		Wed Dec  7 14:36:19 2022


#	Modifying user name:	trannguyen
#	Modification time:	Wed Dec  7 14:36:19 2022

@<TRIPOS>MOLECULE
ZINC20424784
 39 43 0 0 0
SMALL
GASTEIGER

@<TRIPOS>ATOM
      1 C          11.5550  -28.2433   13.7059 C.ar    1  UNL1        0.2113
      2 N          12.4604  -27.5713   14.4774 N.ar    1  UNL1       -0.1864
      3 C          11.9941  -26.2996   14.6653 C.ar    1  UNL1        0.2317
      4 N          10.8487  -26.1911   14.0361 N.ar    1  UNL1       -0.2446
      5 N          10.5704  -27.4224   13.4284 N.ar    1  UNL1       -0.1443
      6 H          10.2836  -25.3859   13.9975 H       1  UNL1        0.1919
      7 N          12.6195  -25.3020   15.3974 N.pl3   1  UNL1       -0.2047
      8 H          12.2990  -25.0803   16.3015 H       1  UNL1        0.1775
      9 N          13.7077  -24.6093   14.8505 N.2     1  UNL1       -0.1742
     10 C          14.8357  -25.2265   14.6455 C.2     1  UNL1        0.1551
     11 C          15.9733  -24.5024   14.0737 C.ar    1  UNL1        0.1694
     12 C          15.9027  -23.3686   13.3171 C.ar    1  UNL1        0.0458
     13 C          17.2240  -23.0194   12.9844 C.ar    1  UNL1        0.0811
     14 C          18.0346  -23.9480   13.5486 C.ar    1  UNL1        0.2970
     15 O          17.2744  -24.8375   14.2087 O.2     1  UNL1       -0.4221
     16 O          19.3884  -23.9723   13.4647 O.3     1  UNL1       -0.4429
     17 C          20.1106  -24.1565   14.6839 C.3     1  UNL1        0.2353
     18 C          20.5327  -22.8150   15.2253 C.ar    1  UNL1        0.0215
     19 C          19.9935  -22.3481   16.4098 C.ar    1  UNL1        0.0024
     20 C          20.3831  -21.1213   16.9112 C.ar    1  UNL1        0.0367
     21 C          21.3076  -20.3523   16.2193 C.ar    1  UNL1        0.1387
     22 C          21.8430  -20.8205   15.0281 C.ar    1  UNL1        0.0367
     23 C          21.4543  -22.0505   14.5339 C.ar    1  UNL1        0.0024
     24 O          21.6886  -19.1427   16.7080 O.3     1  UNL1       -0.4714
     25 C          21.4274  -18.0009   15.8894 C.3     1  UNL1        0.2525
     26 S          11.6867  -29.9188   13.1767 S.3     1  UNL1       -0.0610
     27 C          10.5498  -30.8150   14.2698 C.3     1  UNL1        0.1800
     28 C          12.5516  -28.2958   20.9387 C.3     1  UNL1        0.0312
     29 C          11.6924  -28.6773   19.7609 C.ar    1  UNL1       -0.0181
     30 C          10.3209  -28.4729   19.8163 C.ar    1  UNL1       -0.0003
     31 C           9.5198  -28.8157   18.7480 C.ar    1  UNL1        0.0455
     32 C          10.0907  -29.3696   17.6102 C.ar    1  UNL1        0.1820
     33 C          11.4794  -29.5764   17.5547 C.ar    1  UNL1        0.1817
     34 C          12.2717  -29.2205   18.6494 C.ar    1  UNL1        0.0416
     35 N          11.7496  -30.1225   16.3413 N.ar    1  UNL1       -0.2390
     36 C          10.6461  -30.2527   15.6646 C.ar    1  UNL1        0.2769
     37 N           9.5909  -29.8120   16.4017 N.ar    1  UNL1       -0.2390
     38 H          12.6444  -30.3805   16.0221 H       1  UNL1        0.3111
     39 H           8.6462  -29.8090   16.1247 H       1  UNL1        0.3111
@<TRIPOS>UNITY_ATOM_ATTR
37 1
charge 1
@<TRIPOS>BOND
     1    28    29    1
     2    29    30   ar
     3    29    34   ar
     4    30    31   ar
     5    31    32   ar
     6    32    37   ar
     7    32    33   ar
     8    33    34   ar
     9    33    35   ar
    10    35    36   ar
    11    36    27    1
    12    36    37   ar
    13    27    26    1
    14    26     1    1
    15     1     5   ar
    16     1     2   ar
    17     2     3   ar
    18     3     4   ar
    19     3     7    1
    20     4     5   ar
    21     7     9    1
    22     9    10    2
    23    10    11    1
    24    11    15   ar
    25    11    12   ar
    26    12    13   ar
    27    13    14   ar
    28    14    15   ar
    29    14    16    1
    30    16    17    1
    31    17    18    1
    32    18    23   ar
    33    18    19   ar
    34    19    20   ar
    35    20    21   ar
    36    21    22   ar
    37    21    24    1
    38    22    23   ar
    39    24    25    1
    40    35    38    1
    41    37    39    1
    42     4     6    1
    43     7     8    1
#	Name:			ZINC20424794
#	Creating user name:	trannguyen
#	Creation time:		Wed Dec  7 14:36:20 2022


#	Modifying user name:	trannguyen
#	Modification time:	Wed Dec  7 14:36:20 2022

@<TRIPOS>MOLECULE
ZINC20424794
 40 43 0 0 0
SMALL
GASTEIGER

@<TRIPOS>ATOM
      1 C          20.2674  -22.4696   12.3981 C.ar    1  UNL1        0.2317
      2 N          20.0471  -21.1433   12.6479 N.ar    1  UNL1       -0.1864
      3 C          21.1398  -20.6499   13.3032 C.ar    1  UNL1        0.2107
      4 N          21.9994  -21.6292   13.4524 N.ar    1  UNL1       -0.1443
      5 N          21.4467  -22.7818   12.8791 N.ar    1  UNL1       -0.2446
      6 H          21.8694  -23.6702   12.8436 H       1  UNL1        0.1919
      7 N          19.3967  -23.3326   11.7506 N.pl3   1  UNL1       -0.2047
      8 H          19.3963  -23.3854   10.7675 H       1  UNL1        0.1775
      9 C          17.3489  -23.6665   12.8358 C.2     1  UNL1        0.1551
     10 N          18.5172  -24.1295   12.4952 N.2     1  UNL1       -0.1742
     11 C          14.9038  -25.9983   14.1224 C.ar    1  UNL1        0.2970
     12 C          15.2907  -25.4236   15.2876 C.ar    1  UNL1        0.0811
     13 C          16.2678  -24.4628   14.9692 C.ar    1  UNL1        0.0458
     14 C          16.4296  -24.4996   13.6143 C.ar    1  UNL1        0.1694
     15 O          15.5909  -25.4330   13.1158 O.2     1  UNL1       -0.4221
     16 O          13.9742  -26.9779   13.9939 O.3     1  UNL1       -0.4429
     17 C          12.7076  -26.7560   14.6172 C.3     1  UNL1        0.2353
     18 C          10.3147  -30.2800   14.2745 C.ar    1  UNL1        0.1387
     19 C          10.3003  -29.5418   15.4490 C.ar    1  UNL1        0.0367
     20 C          11.0747  -28.4030   15.5573 C.ar    1  UNL1        0.0024
     21 C          11.8637  -27.9987   14.4963 C.ar    1  UNL1        0.0215
     22 C          11.8756  -28.7296   13.3227 C.ar    1  UNL1        0.0024
     23 C          11.1072  -29.8722   13.2114 C.ar    1  UNL1        0.0367
     24 C          10.2459  -32.6439   14.0302 C.3     1  UNL1        0.2525
     25 O           9.5540  -31.4009   14.1656 O.3     1  UNL1       -0.4714
     26 S          21.3559  -18.9896   13.8520 S.3     1  UNL1       -0.0735
     27 C          21.9838  -19.1651   15.5448 C.3     1  UNL1        0.0748
     28 C          20.8176  -19.0864   16.5320 C.3     1  UNL1        0.0974
     29 C          20.3584  -20.4791   16.8793 C.2     1  UNL1        0.2270
     30 O          19.3522  -20.6394   17.5373 O.2     1  UNL1       -0.2747
     31 N          21.0657  -21.5465   16.4589 N.am    1  UNL1       -0.2838
     32 H          21.8434  -21.4201   15.8685 H       1  UNL1        0.1549
     33 C          20.6950  -22.8342   16.8614 C.ar    1  UNL1        0.0533
     34 C          19.8576  -23.5995   16.0594 C.ar    1  UNL1        0.0149
     35 C          19.4959  -24.8727   16.4542 C.ar    1  UNL1        0.0044
     36 C          19.9572  -25.3847   17.6522 C.ar    1  UNL1        0.0370
     37 C          20.7893  -24.6226   18.4601 C.ar    1  UNL1        0.1400
     38 C          21.1587  -23.3464   18.0647 C.ar    1  UNL1        0.0515
     39 O          21.2413  -25.1271   19.6382 O.3     1  UNL1       -0.4714
     40 C          21.3664  -26.5476   19.7304 C.3     1  UNL1        0.2525
@<TRIPOS>BOND
     1    24    25    1
     2    25    18    1
     3    18    23   ar
     4    18    19   ar
     5    19    20   ar
     6    20    21   ar
     7    21    22   ar
     8    21    17    1
     9    22    23   ar
    10    17    16    1
    11    16    11    1
    12    11    15   ar
    13    11    12   ar
    14    12    13   ar
    15    13    14   ar
    16    14    15   ar
    17    14     9    1
    18     9    10    2
    19    10     7    1
    20     7     1    1
    21     1     5   ar
    22     1     2   ar
    23     2     3   ar
    24     3     4   ar
    25     3    26    1
    26     4     5   ar
    27    26    27    1
    28    27    28    1
    29    28    29    1
    30    29    30    2
    31    29    31   am
    32    31    33    1
    33    33    38   ar
    34    33    34   ar
    35    34    35   ar
    36    35    36   ar
    37    36    37   ar
    38    37    38   ar
    39    37    39    1
    40    39    40    1
    41     7     8    1
    42     5     6    1
    43    31    32    1
#	Name:			ZINC20425025
#	Creating user name:	trannguyen
#	Creation time:		Wed Dec  7 14:36:20 2022


#	Modifying user name:	trannguyen
#	Modification time:	Wed Dec  7 14:36:20 2022

@<TRIPOS>MOLECULE
ZINC20425025
 38 41 0 0 0
SMALL
GASTEIGER

@<TRIPOS>ATOM
      1 C          11.6693  -27.2179   13.8695 C.ar    1  UNL1        0.2112
      2 N          13.0084  -27.3470   14.1076 N.ar    1  UNL1       -0.1864
      3 C          13.4198  -26.2504   14.8134 C.ar    1  UNL1        0.2317
      4 N          12.3771  -25.4795   15.0079 N.ar    1  UNL1       -0.2446
      5 N          11.2692  -26.0895   14.4052 N.ar    1  UNL1       -0.1443
      6 H          12.3734  -24.6225   15.4925 H       1  UNL1        0.1919
      7 N          14.7114  -26.0006   15.2514 N.pl3   1  UNL1       -0.2047
      8 H          14.9389  -26.1125   16.2027 H       1  UNL1        0.1775
      9 N          15.6928  -25.5887   14.3402 N.2     1  UNL1       -0.1742
     10 C          15.6399  -24.3955   13.8217 C.2     1  UNL1        0.1551
     11 C          16.6659  -23.9649   12.8691 C.ar    1  UNL1        0.1694
     12 C          16.6770  -24.2294   11.5301 C.ar    1  UNL1        0.0458
     13 C          17.8352  -23.6264   11.0066 C.ar    1  UNL1        0.0811
     14 C          18.4772  -23.0332   12.0426 C.ar    1  UNL1        0.2970
     15 O          17.7652  -23.2383   13.1634 O.2     1  UNL1       -0.4221
     16 O          19.6417  -22.3423   11.9605 O.3     1  UNL1       -0.4429
     17 C          20.5880  -22.5383   13.0131 C.3     1  UNL1        0.2353
     18 C          20.7599  -21.2525   13.7802 C.ar    1  UNL1        0.0214
     19 C          21.1036  -20.0912   13.1134 C.ar    1  UNL1        0.0016
     20 C          21.2568  -18.9104   13.8150 C.ar    1  UNL1        0.0294
     21 C          21.0760  -18.8930   15.1876 C.ar    1  UNL1        0.1401
     22 C          20.7368  -20.0578   15.8550 C.ar    1  UNL1        0.0294
     23 C          20.5791  -21.2363   15.1506 C.ar    1  UNL1        0.0016
     24 F          21.2300  -17.7404   15.8752 F       1  UNL1       -0.2042
     25 S          10.6574  -28.3654   12.9955 S.3     1  UNL1       -0.0642
     26 C          10.5770  -29.8059   14.0951 C.3     1  UNL1        0.1502
     27 N          10.5767  -29.7179   16.5671 N.am    1  UNL1       -0.2834
     28 C           9.9627  -29.4004   15.4100 C.2     1  UNL1        0.2376
     29 O           8.9157  -28.7884   15.4272 O.2     1  UNL1       -0.2738
     30 H          11.3823  -30.2838   16.5577 H       1  UNL1        0.1549
     31 C          11.9886  -27.6310   17.8896 C.3     1  UNL1        0.0332
     32 C          10.7270  -28.2257   18.4602 C.ar    1  UNL1        0.0022
     33 C          10.0692  -29.2432   17.7816 C.ar    1  UNL1        0.0471
     34 C           8.9101  -29.7925   18.3135 C.ar    1  UNL1        0.0144
     35 C           8.4114  -29.3225   19.5128 C.ar    1  UNL1        0.0021
     36 C           9.0645  -28.3056   20.1840 C.ar    1  UNL1        0.0112
     37 C          10.2199  -27.7552   19.6568 C.ar    1  UNL1        0.0549
     38 CL         11.0369  -26.4785   20.5029 Cl      1  UNL1       -0.0825
@<TRIPOS>BOND
     1    31    32    1
     2    32    37   ar
     3    32    33   ar
     4    33    34   ar
     5    33    27    1
     6    34    35   ar
     7    35    36   ar
     8    36    37   ar
     9    37    38    1
    10    27    28   am
    11    28    29    2
    12    28    26    1
    13    26    25    1
    14    25     1    1
    15     1     5   ar
    16     1     2   ar
    17     2     3   ar
    18     3     4   ar
    19     3     7    1
    20     4     5   ar
    21     7     9    1
    22     9    10    2
    23    10    11    1
    24    11    15   ar
    25    11    12   ar
    26    12    13   ar
    27    13    14   ar
    28    14    15   ar
    29    14    16    1
    30    16    17    1
    31    17    18    1
    32    18    23   ar
    33    18    19   ar
    34    19    20   ar
    35    20    21   ar
    36    21    22   ar
    37    21    24    1
    38    22    23   ar
    39    27    30    1
    40     4     6    1
    41     7     8    1
#	Name:			ZINC20425082
#	Creating user name:	trannguyen
#	Creation time:		Wed Dec  7 14:36:19 2022


#	Modifying user name:	trannguyen
#	Modification time:	Wed Dec  7 14:36:19 2022

@<TRIPOS>MOLECULE
ZINC20425082
 40 43 0 0 0
SMALL
GASTEIGER

@<TRIPOS>ATOM
      1 C          11.7425  -27.2530   13.8902 C.ar    1  UNL1        0.2107
      2 N          13.0836  -27.2715   14.1510 N.ar    1  UNL1       -0.1864
      3 C          13.3930  -26.1393   14.8528 C.ar    1  UNL1        0.2317
      4 N          12.2892  -25.4509   15.0181 N.ar    1  UNL1       -0.2446
      5 N          11.2447  -26.1537   14.4034 N.ar    1  UNL1       -0.1443
      6 H          12.2087  -24.5912   15.4911 H       1  UNL1        0.1919
      7 N          14.6526  -25.7818   15.3090 N.pl3   1  UNL1       -0.2047
      8 H          14.8467  -25.7877   16.2742 H       1  UNL1        0.1775
      9 N          15.6492  -25.4121   14.3965 N.2     1  UNL1       -0.1742
     10 C          15.6604  -24.2102   13.8961 C.2     1  UNL1        0.1551
     11 C          16.7023  -23.8236   12.9420 C.ar    1  UNL1        0.1694
     12 C          16.7526  -24.1763   11.6244 C.ar    1  UNL1        0.0458
     13 C          17.9148  -23.5900   11.0910 C.ar    1  UNL1        0.0811
     14 C          18.5162  -22.9118   12.0990 C.ar    1  UNL1        0.2970
     15 O          17.7768  -23.0516   13.2120 O.2     1  UNL1       -0.4221
     16 O          19.6696  -22.2046   11.9991 O.3     1  UNL1       -0.4429
     17 C          20.6551  -22.4245   13.0102 C.3     1  UNL1        0.2353
     18 C          20.8406  -21.1632   13.8137 C.ar    1  UNL1        0.0214
     19 C          20.7185  -21.1970   15.1903 C.ar    1  UNL1        0.0016
     20 C          20.8931  -20.0420   15.9287 C.ar    1  UNL1        0.0294
     21 C          21.1801  -18.8484   15.2883 C.ar    1  UNL1        0.1401
     22 C          21.2969  -18.8146   13.9090 C.ar    1  UNL1        0.0294
     23 C          21.1271  -19.9720   13.1733 C.ar    1  UNL1        0.0016
     24 F          21.3463  -17.7176   16.0086 F       1  UNL1       -0.2042
     25 S          10.8415  -28.4863   13.0116 S.3     1  UNL1       -0.0735
     26 C           9.5584  -29.0097   14.1822 C.3     1  UNL1        0.0748
     27 C          10.1997  -29.8094   15.3180 C.3     1  UNL1        0.0974
     28 N          10.5987  -29.1720   17.6745 N.am    1  UNL1       -0.2839
     29 C           9.7360  -29.2607   16.6428 C.2     1  UNL1        0.2270
     30 O           8.5866  -28.8989   16.7806 O.2     1  UNL1       -0.2747
     31 H          11.5491  -29.3921   17.5418 H       1  UNL1        0.1549
     32 C           9.2429  -27.9661   21.4289 C.ar    1  UNL1        0.1386
     33 C           8.9969  -29.2570   20.9847 C.ar    1  UNL1        0.0382
     34 C           9.4455  -29.6570   19.7414 C.ar    1  UNL1        0.0178
     35 C          10.1429  -28.7668   18.9359 C.ar    1  UNL1        0.0505
     36 C          10.3888  -27.4748   19.3811 C.ar    1  UNL1        0.0178
     37 C           9.9396  -27.0761   20.6245 C.ar    1  UNL1        0.0382
     38 O           8.8005  -27.5727   22.6529 O.3     1  UNL1       -0.4755
     39 C           8.5012  -28.2406   24.9562 C.3     1  UNL1        0.0512
     40 C           8.2265  -28.5789   23.4895 C.3     1  UNL1        0.2055
@<TRIPOS>BOND
     1    39    40    1
     2    40    38    1
     3    38    32    1
     4    32    37   ar
     5    32    33   ar
     6    33    34   ar
     7    34    35   ar
     8    35    36   ar
     9    35    28    1
    10    36    37   ar
    11    28    29   am
    12    29    30    2
    13    29    27    1
    14    27    26    1
    15    26    25    1
    16    25     1    1
    17     1     5   ar
    18     1     2   ar
    19     2     3   ar
    20     3     4   ar
    21     3     7    1
    22     4     5   ar
    23     7     9    1
    24     9    10    2
    25    10    11    1
    26    11    15   ar
    27    11    12   ar
    28    12    13   ar
    29    13    14   ar
    30    14    15   ar
    31    14    16    1
    32    16    17    1
    33    17    18    1
    34    18    23   ar
    35    18    19   ar
    36    19    20   ar
    37    20    21   ar
    38    21    22   ar
    39    21    24    1
    40    22    23   ar
    41    28    31    1
    42     4     6    1
    43     7     8    1
#	Name:			ZINC20425146
#	Creating user name:	trannguyen
#	Creation time:		Wed Dec  7 14:36:19 2022


#	Modifying user name:	trannguyen
#	Modification time:	Wed Dec  7 14:36:19 2022

@<TRIPOS>MOLECULE
ZINC20425146
 39 42 0 0 0
SMALL
GASTEIGER

@<TRIPOS>ATOM
      1 C          13.3414  -26.4330   14.7949 C.ar    1  UNL1        0.2317
      2 N          12.6968  -27.4189   14.1004 N.ar    1  UNL1       -0.1864
      3 C          11.3952  -27.0376   13.9361 C.ar    1  UNL1        0.2112
      4 N          11.2411  -25.8658   14.5046 N.ar    1  UNL1       -0.1443
      5 N          12.4727  -25.4855   15.0535 N.ar    1  UNL1       -0.2446
      6 H          12.6541  -24.6530   15.5468 H       1  UNL1        0.1919
      7 N          14.6775  -26.4373   15.1656 N.pl3   1  UNL1       -0.2047
      8 H          14.9470  -26.8215   16.0310 H       1  UNL1        0.1775
      9 C          15.6242  -24.6238   14.0264 C.2     1  UNL1        0.1551
     10 N          15.6440  -25.8948   14.3085 N.2     1  UNL1       -0.1742
     11 C          18.3420  -22.8804   12.3999 C.ar    1  UNL1        0.2970
     12 C          17.8549  -23.5651   11.3362 C.ar    1  UNL1        0.0811
     13 C          16.7645  -24.3242   11.7983 C.ar    1  UNL1        0.0458
     14 C          16.6345  -24.0566   13.1304 C.ar    1  UNL1        0.1694
     15 O          17.5995  -23.1788   13.4791 O.2     1  UNL1       -0.4221
     16 O          19.3993  -22.0310   12.3772 O.3     1  UNL1       -0.4428
     17 C          20.5052  -22.3489   13.2247 C.3     1  UNL1        0.2358
     18 C          19.6862  -23.2384   15.8485 C.3     1  UNL1        0.0308
     19 C          20.1453  -21.8177   15.6438 C.ar    1  UNL1       -0.0215
     20 C          20.1744  -20.9401   16.7119 C.ar    1  UNL1       -0.0044
     21 C          20.5953  -19.6369   16.5249 C.ar    1  UNL1        0.0005
     22 C          20.9876  -19.2102   15.2700 C.ar    1  UNL1        0.0112
     23 C          20.9589  -20.0877   14.2011 C.ar    1  UNL1        0.0569
     24 C          20.5373  -21.3923   14.3888 C.ar    1  UNL1        0.0279
     25 CL         21.4508  -19.5525   12.6246 Cl      1  UNL1       -0.0825
     26 S          10.1434  -27.9581   13.1053 S.3     1  UNL1       -0.0642
     27 C           9.5778  -29.1514   14.3490 C.3     1  UNL1        0.1499
     28 C          10.2942  -30.4622   14.1499 C.2     1  UNL1        0.2339
     29 O          10.2373  -31.3204   15.0049 O.2     1  UNL1       -0.2741
     30 N          10.9982  -30.6807   13.0215 N.am    1  UNL1       -0.3033
     31 H          11.0444  -29.9840   12.3275 H       1  UNL1        0.1495
     32 C          11.6947  -31.9550   12.8280 C.3     1  UNL1        0.0941
     33 C          13.0473  -31.7005   12.1597 C.3     1  UNL1        0.0476
     34 C          13.4194  -32.8885   11.3105 C.ar    1  UNL1       -0.0205
     35 C          14.6413  -32.9209   10.6648 C.ar    1  UNL1       -0.0042
     36 C          14.9846  -34.0128    9.8897 C.ar    1  UNL1       -0.0003
     37 C          14.1019  -35.0678    9.7521 C.ar    1  UNL1       -0.0000
     38 C          12.8777  -35.0327   10.3932 C.ar    1  UNL1       -0.0003
     39 C          12.5366  -33.9431   11.1725 C.ar    1  UNL1       -0.0042
@<TRIPOS>BOND
     1    18    19    1
     2    19    24   ar
     3    19    20   ar
     4    20    21   ar
     5    21    22   ar
     6    22    23   ar
     7    23    24   ar
     8    23    25    1
     9    24    17    1
    10    17    16    1
    11    16    11    1
    12    11    15   ar
    13    11    12   ar
    14    12    13   ar
    15    13    14   ar
    16    14    15   ar
    17    14     9    1
    18     9    10    2
    19    10     7    1
    20     7     1    1
    21     1     5   ar
    22     1     2   ar
    23     2     3   ar
    24     3     4   ar
    25     3    26    1
    26     4     5   ar
    27    26    27    1
    28    27    28    1
    29    28    29    2
    30    28    30   am
    31    30    32    1
    32    32    33    1
    33    33    34    1
    34    34    39   ar
    35    34    35   ar
    36    35    36   ar
    37    36    37   ar
    38    37    38   ar
    39    38    39   ar
    40     7     8    1
    41     5     6    1
    42    30    31    1
#	Name:			ZINC20425174
#	Creating user name:	trannguyen
#	Creation time:		Wed Dec  7 14:36:20 2022


#	Modifying user name:	trannguyen
#	Modification time:	Wed Dec  7 14:36:20 2022

@<TRIPOS>MOLECULE
ZINC20425174
 39 42 0 0 0
SMALL
GASTEIGER

@<TRIPOS>ATOM
      1 C          13.2578  -26.0643   14.9092 C.ar    1  UNL1        0.2317
      2 N          11.9075  -26.2731   14.8553 N.ar    1  UNL1       -0.1864
      3 C          11.6853  -27.6193   14.9269 C.ar    1  UNL1        0.2112
      4 N          12.8482  -28.2174   15.0266 N.ar    1  UNL1       -0.1443
      5 N          13.8446  -27.2327   15.0098 N.ar    1  UNL1       -0.2446
      6 H          14.8149  -27.3903   15.0639 H       1  UNL1        0.1919
      7 N          13.8946  -24.8335   14.8656 N.pl3   1  UNL1       -0.2047
      8 H          13.5018  -24.0592   15.3299 H       1  UNL1        0.1775
      9 C          15.4391  -23.5289   13.6843 C.2     1  UNL1        0.1551
     10 N          15.0971  -24.6915   14.1608 N.2     1  UNL1       -0.1742
     11 C          18.6777  -22.6472   12.3409 C.ar    1  UNL1        0.2970
     12 C          18.3465  -23.6385   11.4776 C.ar    1  UNL1        0.0811
     13 C          17.0786  -24.1124   11.8607 C.ar    1  UNL1        0.0458
     14 C          16.6962  -23.3805   12.9475 C.ar    1  UNL1        0.1694
     15 O          17.6754  -22.4923   13.2220 O.2     1  UNL1       -0.4221
     16 O          19.8273  -21.9274   12.3158 O.3     1  UNL1       -0.4428
     17 C          20.8025  -22.2273   13.3163 C.3     1  UNL1        0.2358
     18 C          19.8754  -23.1013   15.9091 C.3     1  UNL1        0.0308
     19 C          20.2399  -21.6559   15.6871 C.ar    1  UNL1       -0.0215
     20 C          20.1302  -20.7483   16.7243 C.ar    1  UNL1       -0.0044
     21 C          20.4634  -19.4224   16.5213 C.ar    1  UNL1        0.0005
     22 C          20.9066  -19.0029   15.2809 C.ar    1  UNL1        0.0112
     23 C          21.0228  -19.9118   14.2445 C.ar    1  UNL1        0.0569
     24 C          20.6832  -21.2380   14.4468 C.ar    1  UNL1        0.0279
     25 CL         21.5870  -19.3875   12.6888 Cl      1  UNL1       -0.0825
     26 S          10.1120  -28.4122   14.8977 S.3     1  UNL1       -0.0642
     27 C          10.3987  -29.9875   15.7501 C.3     1  UNL1        0.1502
     28 C          10.2940  -29.7795   17.2390 C.2     1  UNL1        0.2376
     29 O          10.9736  -30.4431   17.9933 O.2     1  UNL1       -0.2738
     30 N           9.4494  -28.8522   17.7322 N.am    1  UNL1       -0.2837
     31 H           8.9374  -28.2769   17.1189 H       1  UNL1        0.1549
     32 C           9.3003  -28.7070   19.1159 C.ar    1  UNL1        0.0422
     33 C          10.0849  -27.7941   19.8084 C.ar    1  UNL1       -0.0087
     34 C           9.9310  -27.6488   21.1731 C.ar    1  UNL1       -0.0031
     35 C           9.0051  -28.4197   21.8519 C.ar    1  UNL1       -0.0006
     36 C           8.2266  -29.3341   21.1662 C.ar    1  UNL1       -0.0031
     37 C           8.3714  -29.4797   19.8004 C.ar    1  UNL1       -0.0087
     38 C           7.5220  -30.4757   19.0538 C.3     1  UNL1        0.0323
     39 C          11.0989  -26.9583   19.0704 C.3     1  UNL1        0.0323
@<TRIPOS>BOND
     1    18    19    1
     2    19    24   ar
     3    19    20   ar
     4    20    21   ar
     5    21    22   ar
     6    22    23   ar
     7    23    24   ar
     8    23    25    1
     9    24    17    1
    10    17    16    1
    11    16    11    1
    12    11    15   ar
    13    11    12   ar
    14    12    13   ar
    15    13    14   ar
    16    14    15   ar
    17    14     9    1
    18     9    10    2
    19    10     7    1
    20     7     1    1
    21     1     5   ar
    22     1     2   ar
    23     2     3   ar
    24     3     4   ar
    25     3    26    1
    26     4     5   ar
    27    26    27    1
    28    27    28    1
    29    28    29    2
    30    28    30   am
    31    30    32    1
    32    32    37   ar
    33    32    33   ar
    34    33    34   ar
    35    33    39    1
    36    34    35   ar
    37    35    36   ar
    38    36    37   ar
    39    37    38    1
    40     7     8    1
    41     5     6    1
    42    30    31    1
#	Name:			ZINC20644548
#	Creating user name:	trannguyen
#	Creation time:		Wed Dec  7 14:36:19 2022


#	Modifying user name:	trannguyen
#	Modification time:	Wed Dec  7 14:36:19 2022

@<TRIPOS>MOLECULE
ZINC20644548
 39 43 0 0 0
SMALL
GASTEIGER

@<TRIPOS>ATOM
      1 C          16.8243  -25.0966   13.0622 C.3     1  UNL1        0.0246
      2 C          17.6788  -24.1051   12.2699 C.3     1  UNL1        0.0025
      3 C          17.8346  -22.8114   13.0719 C.3     1  UNL1        0.0096
      4 C          19.1377  -22.1168   12.6714 C.3     1  UNL1        0.0850
      5 N          19.6861  -22.4945   15.0536 N.am    1  UNL1       -0.3040
      6 C          20.1180  -22.1909   13.8136 C.2     1  UNL1        0.2225
      7 O          21.2955  -21.9774   13.6168 O.2     1  UNL1       -0.2751
      8 H          18.7302  -22.6679   15.2133 H       1  UNL1        0.1494
      9 C          20.6391  -22.5665   16.1640 C.3     1  UNL1        0.0941
     10 C          19.9193  -22.2459   17.4755 C.3     1  UNL1        0.0491
     11 C          16.6138  -24.7896   19.6145 C.ar    1  UNL1        0.0001
     12 C          17.1367  -25.8308   20.3695 C.ar    1  UNL1        0.0015
     13 C          18.4971  -26.0355   20.4371 C.ar    1  UNL1        0.0170
     14 C          19.3582  -25.1917   19.7428 C.ar    1  UNL1        0.0563
     15 C          18.8235  -24.1381   18.9793 C.ar    1  UNL1        0.0131
     16 C          17.4411  -23.9488   18.9253 C.ar    1  UNL1        0.0012
     17 C          19.9697  -23.4479   18.3830 C.ar    1  UNL1       -0.0021
     18 C          21.0730  -24.0927   18.7937 C.ar    1  UNL1        0.0681
     19 N          20.7275  -25.1341   19.6113 N.ar    1  UNL1       -0.3523
     20 H          21.3634  -25.7504   20.0415 H       1  UNL1        0.1660
     21 C          16.6442  -24.5850   14.4929 C.3     1  UNL1        0.1077
     22 N          16.8106  -25.6960   15.4332 N.ar    1  UNL1       -0.3103
     23 C          18.0524  -26.0415   15.8369 C.ar    1  UNL1        0.2581
     24 O          19.0295  -25.4435   15.4291 O.2     1  UNL1       -0.2671
     25 C          18.1929  -27.1625   16.7839 C.ar    1  UNL1        0.0352
     26 C          19.4394  -27.5774   17.2463 C.ar    1  UNL1        0.0174
     27 C          19.5179  -28.6362   18.1362 C.ar    1  UNL1        0.0480
     28 C          18.3600  -29.2797   18.5651 C.ar    1  UNL1        0.0127
     29 C          17.1221  -28.8733   18.1105 C.ar    1  UNL1       -0.0225
     30 C          17.0268  -27.8155   17.2193 C.ar    1  UNL1       -0.1132
     31 N          15.7982  -27.3781   16.7404 N.ar    1  UNL1       -0.6386
     32 C          15.7258  -26.3469   15.8812 C.ar    1  UNL1       -0.0162
     33 S          14.1842  -25.8470   15.3293 S.2     1  UNL1       -0.0582
     34 N          20.7657  -29.0603   18.6065 N.pl3   1  UNL1       -0.3028
     35 C          20.7932  -29.0879   20.0761 C.3     1  UNL1        0.1231
     36 C          22.1523  -29.6131   20.5459 C.3     1  UNL1        0.1636
     37 O          23.1892  -28.7930   20.0003 O.3     1  UNL1       -0.3501
     38 C          23.1923  -28.7439   18.5710 C.3     1  UNL1        0.1636
     39 C          21.8436  -28.2098   18.0812 C.3     1  UNL1        0.1231
@<TRIPOS>UNITY_ATOM_ATTR
31 1
charge -1
@<TRIPOS>BOND
     1    11    16   ar
     2    11    12   ar
     3    12    13   ar
     4    13    14   ar
     5    14    19   ar
     6    14    15   ar
     7    15    16   ar
     8    15    17   ar
     9    17    18   ar
    10    17    10    1
    11    18    19   ar
    12    10     9    1
    13     9     5    1
    14     5     6   am
    15     6     7    2
    16     6     4    1
    17     4     3    1
    18     3     2    1
    19     2     1    1
    20     1    21    1
    21    21    22    1
    22    22    32   ar
    23    22    23   ar
    24    23    24    2
    25    23    25   ar
    26    25    30   ar
    27    25    26   ar
    28    26    27   ar
    29    27    28   ar
    30    27    34    1
    31    28    29   ar
    32    29    30   ar
    33    30    31   ar
    34    31    32   ar
    35    32    33    2
    36    34    39    1
    37    34    35    1
    38    35    36    1
    39    36    37    1
    40    37    38    1
    41    38    39    1
    42    19    20    1
    43     5     8    1
#	Name:			ZINC20832343
#	Creating user name:	trannguyen
#	Creation time:		Wed Dec  7 14:36:20 2022


#	Modifying user name:	trannguyen
#	Modification time:	Wed Dec  7 14:36:20 2022

@<TRIPOS>MOLECULE
ZINC20832343
 36 38 0 0 0
SMALL
GASTEIGER

@<TRIPOS>ATOM
      1 C          20.8727  -20.8196   17.5583 C.ar    1  UNL1        0.2346
      2 N          21.6058  -20.4463   16.5033 N.ar    1  UNL1       -0.3033
      3 C          21.1207  -19.3308   15.9997 C.ar    1  UNL1        0.1909
      4 N          20.0559  -18.9653   16.7454 N.ar    1  UNL1       -0.1210
      5 N          19.9161  -19.9417   17.7448 N.ar    1  UNL1       -0.1110
      6 H          22.3888  -20.9318   16.1563 H       1  UNL1        0.1706
      7 N          21.0934  -21.9551   18.3373 N.pl3   1  UNL1       -0.2047
      8 H          21.7222  -21.9184   19.0940 H       1  UNL1        0.1775
      9 C          19.3305  -23.4524   18.6800 C.2     1  UNL1        0.1177
     10 N          20.4203  -23.1480   18.0433 N.2     1  UNL1       -0.1774
     11 C          18.6717  -27.0486   17.8180 C.ar    1  UNL1        0.1388
     12 C          17.2834  -27.0660   17.7885 C.ar    1  UNL1        0.0369
     13 C          16.5664  -25.9125   18.0477 C.ar    1  UNL1        0.0032
     14 C          17.2256  -24.7356   18.3378 C.ar    1  UNL1        0.0018
     15 C          18.6220  -24.7080   18.3704 C.ar    1  UNL1        0.0237
     16 C          19.3442  -25.8728   18.1030 C.ar    1  UNL1        0.0385
     17 C          20.7325  -28.2214   17.9930 C.3     1  UNL1        0.2525
     18 O          19.3707  -28.1856   17.5614 O.3     1  UNL1       -0.4714
     19 S          21.7535  -18.4637   14.6024 S.3     1  UNL1       -0.0753
     20 C          20.9785  -19.4098   13.2680 C.3     1  UNL1        0.0747
     21 C          21.6007  -20.8062   13.2048 C.3     1  UNL1        0.0974
     22 C          20.5101  -21.8358   13.0585 C.2     1  UNL1        0.2270
     23 O          20.3365  -22.3882   11.9926 O.2     1  UNL1       -0.2747
     24 N          19.7277  -22.1430   14.1120 N.am    1  UNL1       -0.2839
     25 H          19.9114  -21.7459   14.9940 H       1  UNL1        0.1549
     26 C          18.6529  -23.0275   13.9520 C.ar    1  UNL1        0.0505
     27 C          17.5727  -22.6711   13.1557 C.ar    1  UNL1        0.0178
     28 C          16.5161  -23.5454   12.9943 C.ar    1  UNL1        0.0385
     29 C          16.5284  -24.7749   13.6367 C.ar    1  UNL1        0.1469
     30 C          17.6049  -25.1294   14.4368 C.ar    1  UNL1        0.0385
     31 C          18.6647  -24.2584   14.5943 C.ar    1  UNL1        0.0178
     32 O          15.4852  -25.6330   13.4819 O.3     1  UNL1       -0.4045
     33 C          14.6973  -25.9122   14.6409 C.3     1  UNL1        0.5753
     34 F          14.7534  -24.8225   15.5165 F       1  UNL1       -0.1328
     35 F          13.3700  -26.1361   14.2595 F       1  UNL1       -0.1328
     36 F          15.1970  -27.0512   15.2813 F       1  UNL1       -0.1328
@<TRIPOS>BOND
     1    17    18    1
     2    18    11    1
     3    11    16   ar
     4    11    12   ar
     5    12    13   ar
     6    13    14   ar
     7    14    15   ar
     8    15    16   ar
     9    15     9    1
    10     9    10    2
    11    10     7    1
    12     7     1    1
    13     1     5   ar
    14     1     2   ar
    15     2     3   ar
    16     3     4   ar
    17     3    19    1
    18     4     5   ar
    19    19    20    1
    20    20    21    1
    21    21    22    1
    22    22    23    2
    23    22    24   am
    24    24    26    1
    25    26    31   ar
    26    26    27   ar
    27    27    28   ar
    28    28    29   ar
    29    29    30   ar
    30    29    32    1
    31    30    31   ar
    32    32    33    1
    33    33    34    1
    34    33    35    1
    35    33    36    1
    36     7     8    1
    37     2     6    1
    38    24    25    1
#	Name:			ZINC20832822
#	Creating user name:	trannguyen
#	Creation time:		Wed Dec  7 14:36:19 2022


#	Modifying user name:	trannguyen
#	Modification time:	Wed Dec  7 14:36:19 2022

@<TRIPOS>MOLECULE
ZINC20832822
 39 42 0 0 0
SMALL
GASTEIGER

@<TRIPOS>ATOM
      1 C          11.6384  -26.7351   14.3852 C.ar    1  UNL1        0.2317
      2 N          12.3148  -27.9181   14.2736 N.ar    1  UNL1       -0.1864
      3 C          11.6154  -28.7259   13.4225 C.ar    1  UNL1        0.2112
      4 N          10.5512  -28.0704   13.0244 N.ar    1  UNL1       -0.1443
      5 N          10.5631  -26.8115   13.6389 N.ar    1  UNL1       -0.2446
      6 H           9.8835  -26.1077   13.5296 H       1  UNL1        0.1919
      7 N          12.0196  -25.6474   15.1573 N.pl3   1  UNL1       -0.2048
      8 H          11.4187  -25.3069   15.8588 H       1  UNL1        0.1775
      9 C          14.3440  -25.7486   14.9203 C.2     1  UNL1        0.1176
     10 N          13.2599  -25.0336   14.9386 N.2     1  UNL1       -0.1774
     11 C          18.1043  -23.8928   14.2556 C.ar    1  UNL1        0.0478
     12 C          17.8922  -24.6353   15.4121 C.ar    1  UNL1        0.0146
     13 C          16.6722  -25.2360   15.6330 C.ar    1  UNL1        0.0029
     14 C          15.6488  -25.1028   14.6904 C.ar    1  UNL1        0.0208
     15 C          15.8640  -24.3508   13.5320 C.ar    1  UNL1        0.0029
     16 C          17.0868  -23.7535   13.3180 C.ar    1  UNL1        0.0146
     17 N          19.3418  -23.2861   14.0351 N.pl3   1  UNL1       -0.3075
     18 C          21.5643  -24.2372   14.4055 C.3     1  UNL1        0.0232
     19 C          20.4161  -23.4342   15.0201 C.3     1  UNL1        0.0908
     20 C          19.5664  -22.5011   12.8187 C.3     1  UNL1        0.0908
     21 C          19.9748  -21.0766   13.1992 C.3     1  UNL1        0.0232
     22 S          12.0644  -30.3609   12.9431 S.3     1  UNL1       -0.0642
     23 C          10.8418  -31.4129   13.7734 C.3     1  UNL1        0.1502
     24 C          10.7069  -30.9866   15.2125 C.2     1  UNL1        0.2390
     25 O          11.3686  -31.5309   16.0707 O.2     1  UNL1       -0.2738
     26 N           9.8509  -30.0004   15.5458 N.am    1  UNL1       -0.2634
     27 H           9.3137  -29.5585   14.8491 H       1  UNL1        0.1568
     28 C           9.7268  -29.6083   16.8694 C.ar    1  UNL1        0.1655
     29 N           8.8619  -30.0121   17.7694 N.ar    1  UNL1       -0.2239
     30 C           8.8575  -29.5398   19.0361 C.ar    1  UNL1        0.0894
     31 C           7.9869  -29.8897   20.0941 C.ar    1  UNL1        0.0228
     32 C           8.1177  -29.3135   21.3300 C.ar    1  UNL1        0.0385
     33 C           9.1059  -28.3683   21.5895 C.ar    1  UNL1        0.1391
     34 C           9.9764  -28.0027   20.5736 C.ar    1  UNL1        0.0450
     35 C           9.8489  -28.5776   19.3336 C.ar    1  UNL1        0.0527
     36 S          10.7094  -28.4302   17.7862 S.2     1  UNL1       -0.0513
     37 O           9.2167  -27.8102   22.8246 O.3     1  UNL1       -0.4754
     38 C           8.4891  -28.4325   23.8854 C.3     1  UNL1        0.2055
     39 C           8.1925  -27.3998   24.9747 C.3     1  UNL1        0.0512
@<TRIPOS>BOND
     1    18    19    1
     2    19    17    1
     3    17    20    1
     4    17    11    1
     5    20    21    1
     6    11    16   ar
     7    11    12   ar
     8    12    13   ar
     9    13    14   ar
    10    14    15   ar
    11    14     9    1
    12    15    16   ar
    13     9    10    2
    14    10     7    1
    15     7     1    1
    16     1     5   ar
    17     1     2   ar
    18     2     3   ar
    19     3     4   ar
    20     3    22    1
    21     4     5   ar
    22    22    23    1
    23    23    24    1
    24    24    25    2
    25    24    26   am
    26    26    28    1
    27    28    36   ar
    28    28    29   ar
    29    29    30   ar
    30    30    35   ar
    31    30    31   ar
    32    31    32   ar
    33    32    33   ar
    34    33    34   ar
    35    33    37    1
    36    34    35   ar
    37    35    36   ar
    38    37    38    1
    39    38    39    1
    40     7     8    1
    41     5     6    1
    42    26    27    1
#	Name:			ZINC20836496
#	Creating user name:	trannguyen
#	Creation time:		Wed Dec  7 14:36:19 2022


#	Modifying user name:	trannguyen
#	Modification time:	Wed Dec  7 14:36:19 2022

@<TRIPOS>MOLECULE
ZINC20836496
 40 43 0 0 0
SMALL
GASTEIGER

@<TRIPOS>ATOM
      1 N          17.0642  -24.6355   14.4761 N.am    1  UNL1       -0.2839
      2 C          16.3736  -25.2675   13.5065 C.2     1  UNL1        0.2270
      3 O          16.8343  -25.3469   12.3872 O.2     1  UNL1       -0.2747
      4 H          16.7287  -24.6391   15.4017 H       1  UNL1        0.1549
      5 C          20.6183  -22.6658   13.5565 C.ar    1  UNL1        0.1253
      6 C          20.6543  -23.8954   14.1882 C.ar    1  UNL1        0.0215
      7 C          19.4779  -24.5509   14.4945 C.ar    1  UNL1        0.0160
      8 C          18.2579  -23.9739   14.1673 C.ar    1  UNL1        0.0504
      9 C          18.2251  -22.7417   13.5277 C.ar    1  UNL1        0.0160
     10 C          19.4050  -22.0884   13.2298 C.ar    1  UNL1        0.0215
     11 S          22.1214  -21.8328   13.1676 S.O2    1  UNL1        0.0736
     12 O          23.0914  -22.8408   12.9176 O.2     1  UNL1       -0.1499
     13 O          21.7963  -20.8343   12.2102 O.2     1  UNL1       -0.1499
     14 N          22.6080  -21.0364   14.5355 N.pl3   1  UNL1       -0.2153
     15 H          23.5673  -20.9470   14.7381 H       1  UNL1        0.1737
     16 C          21.9607  -18.2804   14.2547 C.3     1  UNL1        0.0324
     17 C          21.3112  -19.1501   15.3001 C.ar    1  UNL1       -0.0072
     18 C          20.3705  -18.6144   16.1580 C.ar    1  UNL1       -0.0030
     19 C          19.7735  -19.4119   17.1168 C.ar    1  UNL1       -0.0002
     20 C          20.1160  -20.7479   17.2208 C.ar    1  UNL1        0.0013
     21 C          21.0521  -21.2910   16.3631 C.ar    1  UNL1        0.0155
     22 C          21.6575  -20.4913   15.4017 C.ar    1  UNL1        0.0608
     23 C          15.0293  -25.8756   13.8128 C.3     1  UNL1        0.0974
     24 C          14.4591  -25.2396   15.0822 C.3     1  UNL1        0.0748
     25 S          13.7070  -26.5255   16.1174 S.3     1  UNL1       -0.0735
     26 C          12.2386  -26.9669   15.2494 C.ar    1  UNL1        0.2107
     27 N          11.5598  -28.1466   15.3675 N.ar    1  UNL1       -0.1864
     28 C          10.4798  -28.0981   14.5309 C.ar    1  UNL1        0.2317
     29 N          10.4909  -26.9377   13.9218 N.ar    1  UNL1       -0.2446
     30 N          11.6022  -26.2184   14.3805 N.ar    1  UNL1       -0.1443
     31 H           9.8337  -26.6262   13.2583 H       1  UNL1        0.1919
     32 N           9.5364  -29.1019   14.3575 N.pl3   1  UNL1       -0.2055
     33 H           8.6602  -28.8909   13.9611 H       1  UNL1        0.1774
     34 N           9.8313  -30.4151   14.7465 N.2     1  UNL1       -0.1878
     35 C          10.5889  -31.1442   14.0162 C.2     1  UNL1        0.0540
     36 C          11.2780  -30.5701   12.7981 C.3     1  UNL1        0.0429
     37 C          12.7742  -30.9095   12.8849 C.3     1  UNL1        0.0060
     38 C          12.9415  -32.4210   13.0492 C.3     1  UNL1        0.0008
     39 C          12.3216  -32.8706   14.3732 C.3     1  UNL1        0.0060
     40 C          10.8130  -32.6034   14.3457 C.3     1  UNL1        0.0429
@<TRIPOS>BOND
     1    16    17    1
     2    17    22   ar
     3    17    18   ar
     4    18    19   ar
     5    19    20   ar
     6    20    21   ar
     7    21    22   ar
     8    22    14    1
     9    14    11    1
    10    11    12    2
    11    11    13    2
    12    11     5    1
    13     5    10   ar
    14     5     6   ar
    15     6     7   ar
    16     7     8   ar
    17     8     9   ar
    18     8     1    1
    19     9    10   ar
    20     1     2   am
    21     2     3    2
    22     2    23    1
    23    23    24    1
    24    24    25    1
    25    25    26    1
    26    26    30   ar
    27    26    27   ar
    28    27    28   ar
    29    28    29   ar
    30    28    32    1
    31    29    30   ar
    32    32    34    1
    33    34    35    2
    34    35    40    1
    35    35    36    1
    36    36    37    1
    37    37    38    1
    38    38    39    1
    39    39    40    1
    40    14    15    1
    41     1     4    1
    42    29    31    1
    43    32    33    1
#	Name:			ZINC20837977
#	Creating user name:	trannguyen
#	Creation time:		Wed Dec  7 14:36:19 2022


#	Modifying user name:	trannguyen
#	Modification time:	Wed Dec  7 14:36:19 2022

@<TRIPOS>MOLECULE
ZINC20837977
 38 41 0 0 0
SMALL
GASTEIGER

@<TRIPOS>ATOM
      1 C          13.8408  -25.7142   15.0205 C.ar    1  UNL1        0.2112
      2 N          15.0738  -26.0484   14.5340 N.ar    1  UNL1       -0.1864
      3 C          15.6686  -24.8696   14.1591 C.ar    1  UNL1        0.2317
      4 N          14.7916  -23.8776   14.4158 N.ar    1  UNL1       -0.2446
      5 N          13.7192  -24.3724   14.9250 N.ar    1  UNL1       -0.1443
      6 H          14.9482  -22.9215   14.2404 H       1  UNL1        0.1919
      7 N          16.8893  -24.7309   13.6338 N.pl3   1  UNL1       -0.2052
      8 H          17.2665  -25.4443   13.0698 H       1  UNL1        0.1774
      9 N          17.5736  -23.6622   13.8655 N.2     1  UNL1       -0.1834
     10 C          18.8865  -23.6969   13.8073 C.2     1  UNL1        0.0766
     11 C          19.5921  -24.9849   13.4699 C.3     1  UNL1        0.0537
     12 C          19.6634  -22.4834   14.0704 C.ar    1  UNL1        0.0152
     13 C          20.1775  -21.7287   13.0041 C.ar    1  UNL1        0.0029
     14 C          20.9019  -20.5863   13.2615 C.ar    1  UNL1        0.0241
     15 C          21.1341  -20.1872   14.5682 C.ar    1  UNL1        0.1429
     16 C          20.6355  -20.9286   15.6276 C.ar    1  UNL1        0.0241
     17 C          19.9036  -22.0706   15.3906 C.ar    1  UNL1        0.0029
     18 N          21.9192  -18.9609   14.8340 N.pl3   1  UNL1        0.0577
     19 O          21.8415  -17.9374   14.0087 O.2     1  UNL1       -0.1261
     20 O          22.6953  -18.8931   15.8958 O.2     1  UNL1       -0.1261
     21 S          12.6667  -26.7970   15.6367 S.3     1  UNL1       -0.0642
     22 C          11.4655  -26.7618   14.2832 C.3     1  UNL1        0.1502
     23 N          12.3533  -29.0442   13.9351 N.am    1  UNL1       -0.2634
     24 C          11.5134  -28.0690   13.5349 C.2     1  UNL1        0.2390
     25 O          10.7963  -28.2434   12.5726 O.2     1  UNL1       -0.2738
     26 H          12.9355  -28.9025   14.7163 H       1  UNL1        0.1568
     27 C          12.7466  -34.4358   10.6914 C.ar    1  UNL1        0.1391
     28 C          13.8038  -33.6489   10.2438 C.ar    1  UNL1        0.0385
     29 C          14.0211  -32.3923   10.7440 C.ar    1  UNL1        0.0228
     30 C          13.1724  -31.8515   11.7374 C.ar    1  UNL1        0.0894
     31 C          12.1093  -32.6766   12.1692 C.ar    1  UNL1        0.0527
     32 C          11.8953  -33.9354   11.6651 C.ar    1  UNL1        0.0450
     33 S          11.3119  -31.6593   13.3884 S.2     1  UNL1       -0.0513
     34 C          12.3973  -30.2464   13.2468 C.ar    1  UNL1        0.1655
     35 N          13.2496  -30.6389   12.3300 N.ar    1  UNL1       -0.2239
     36 O          12.5511  -35.6806   10.1803 O.3     1  UNL1       -0.4754
     37 C          12.3748  -36.3137    7.8547 C.3     1  UNL1        0.0512
     38 C          13.3172  -36.0365    9.0276 C.3     1  UNL1        0.2055
@<TRIPOS>BOND
     1    37    38    1
     2    38    36    1
     3    36    27    1
     4    27    32   ar
     5    27    28   ar
     6    28    29   ar
     7    29    30   ar
     8    30    35   ar
     9    30    31   ar
    10    31    32   ar
    11    31    33   ar
    12    33    34   ar
    13    34    35   ar
    14    34    23    1
    15    23    24   am
    16    24    25    2
    17    24    22    1
    18    22    21    1
    19    21     1    1
    20     1     5   ar
    21     1     2   ar
    22     2     3   ar
    23     3     4   ar
    24     3     7    1
    25     4     5   ar
    26     7     9    1
    27     9    10    2
    28    10    11    1
    29    10    12    1
    30    12    17   ar
    31    12    13   ar
    32    13    14   ar
    33    14    15   ar
    34    15    16   ar
    35    15    18    1
    36    16    17   ar
    37    18    19    2
    38    18    20    2
    39    23    26    1
    40     4     6    1
    41     7     8    1
#	Name:			ZINC20856666
#	Creating user name:	trannguyen
#	Creation time:		Wed Dec  7 14:36:20 2022


#	Modifying user name:	trannguyen
#	Modification time:	Wed Dec  7 14:36:20 2022

@<TRIPOS>MOLECULE
ZINC20856666
 35 38 0 0 0
SMALL
GASTEIGER

@<TRIPOS>ATOM
      1 O          22.2999  -27.5593   17.3696 O.3     1  UNL1       -0.4353
      2 C          21.3415  -27.9956   16.5288 C.2     1  UNL1        0.3417
      3 O          20.8480  -29.0943   16.6879 O.2     1  UNL1       -0.2449
      4 C          14.3889  -24.0503   14.8985 C.3     1  UNL1        0.0004
      5 C          15.5983  -24.4019   14.0300 C.3     1  UNL1        0.0048
      6 C          16.0787  -23.1495   13.2913 C.3     1  UNL1        0.0065
      7 C          17.1218  -23.5437   12.2399 C.3     1  UNL1        0.0432
      8 C          18.1657  -24.4140   12.9017 C.ar    1  UNL1        0.0295
      9 C          17.9849  -25.0236   14.0883 C.ar    1  UNL1       -0.0094
     10 C          19.2079  -25.7627   14.3878 C.ar    1  UNL1        0.0129
     11 C          19.6217  -26.5701   15.4447 C.ar    1  UNL1        0.0076
     12 C          20.8915  -27.1390   15.4152 C.ar    1  UNL1        0.0757
     13 C          21.7459  -26.8939   14.3301 C.ar    1  UNL1        0.0079
     14 C          21.3422  -26.1084   13.2920 C.ar    1  UNL1        0.0172
     15 C          20.0751  -25.5286   13.3004 C.ar    1  UNL1        0.0561
     16 N          19.4105  -24.7078   12.4200 N.ar    1  UNL1       -0.3567
     17 C          16.7306  -24.9320   14.9183 C.3     1  UNL1        0.0275
     18 H          19.7776  -24.3799   11.5674 H       1  UNL1        0.1656
     19 C          21.9673  -27.5156   18.7823 C.3     1  UNL1        0.2927
     20 C          21.2037  -26.2508   19.0796 C.2     1  UNL1        0.2672
     21 O          20.3244  -26.2555   19.9147 O.2     1  UNL1       -0.2711
     22 N          21.4981  -25.1144   18.4174 N.am    1  UNL1       -0.3010
     23 H          22.2120  -25.1106   17.7395 H       1  UNL1        0.1496
     24 C          20.7557  -23.8850   18.7064 C.3     1  UNL1        0.0942
     25 C          19.7079  -23.6537   17.6158 C.3     1  UNL1        0.0477
     26 C          20.0489  -22.4020   16.8489 C.ar    1  UNL1       -0.0173
     27 C          20.2642  -21.2157   17.5255 C.ar    1  UNL1       -0.0009
     28 C          20.5828  -20.0660   16.8270 C.ar    1  UNL1        0.0397
     29 C          20.6760  -20.0985   15.4449 C.ar    1  UNL1        0.1724
     30 C          20.4537  -21.2913   14.7635 C.ar    1  UNL1        0.1721
     31 C          20.1403  -22.4413   15.4700 C.ar    1  UNL1        0.0358
     32 O          20.5443  -21.3283   13.4070 O.3     1  UNL1       -0.4684
     33 C          21.7057  -21.9482   12.8511 C.3     1  UNL1        0.2526
     34 O          20.9844  -18.9674   14.7559 O.3     1  UNL1       -0.4684
     35 C          22.1219  -18.2261   15.2014 C.3     1  UNL1        0.2526
@<TRIPOS>BOND
     1     4     5    1
     2     5    17    1
     3     5     6    1
     4     6     7    1
     5     7     8    1
     6     8    16   ar
     7     8     9   ar
     8     9    10   ar
     9     9    17    1
    10    10    15   ar
    11    10    11   ar
    12    11    12   ar
    13    12    13   ar
    14    12     2    1
    15    13    14   ar
    16    14    15   ar
    17    15    16   ar
    18     2     3    2
    19     2     1    1
    20     1    19    1
    21    19    20    1
    22    20    21    2
    23    20    22   am
    24    22    24    1
    25    24    25    1
    26    25    26    1
    27    26    31   ar
    28    26    27   ar
    29    27    28   ar
    30    28    29   ar
    31    29    30   ar
    32    29    34    1
    33    30    31   ar
    34    30    32    1
    35    32    33    1
    36    34    35    1
    37    16    18    1
    38    22    23    1
#	Name:			ZINC20863232
#	Creating user name:	trannguyen
#	Creation time:		Wed Dec  7 14:36:20 2022


#	Modifying user name:	trannguyen
#	Modification time:	Wed Dec  7 14:36:20 2022

@<TRIPOS>MOLECULE
ZINC20863232
 29 30 0 0 0
SMALL
GASTEIGER

@<TRIPOS>ATOM
      1 C          20.1782  -25.8489   13.7214 C.3     1  UNL1        0.2897
      2 C          20.5290  -24.7185   14.6544 C.2     1  UNL1        0.2706
      3 O          21.5379  -24.7767   15.3250 O.2     1  UNL1       -0.2707
      4 N          19.7216  -23.6431   14.7436 N.am    1  UNL1       -0.2814
      5 H          18.8623  -23.6314   14.2633 H       1  UNL1        0.1549
      6 C          20.1047  -22.5430   15.5187 C.ar    1  UNL1        0.0423
      7 C          19.7641  -22.4872   16.8641 C.ar    1  UNL1       -0.0087
      8 C          20.1491  -21.4030   17.6279 C.ar    1  UNL1       -0.0031
      9 C          20.8627  -20.3678   17.0517 C.ar    1  UNL1       -0.0006
     10 C          21.1979  -20.4175   15.7113 C.ar    1  UNL1       -0.0031
     11 C          20.8212  -21.5020   14.9433 C.ar    1  UNL1       -0.0093
     12 C          18.9812  -23.6118   17.4913 C.3     1  UNL1        0.0323
     13 C          21.1878  -21.5557   13.4826 C.3     1  UNL1        0.0236
     14 C          21.1398  -20.1450   12.8925 C.3     1  UNL1        0.0047
     15 C          22.6004  -22.1238   13.3319 C.3     1  UNL1        0.0047
     16 O          20.8333  -27.0433   14.1528 O.3     1  UNL1       -0.4656
     17 C          22.2772  -28.5899   11.1881 C.ar    1  UNL1        0.0562
     18 C          21.7039  -29.8536   11.2545 C.ar    1  UNL1        0.0150
     19 C          20.8474  -30.1707   12.2906 C.ar    1  UNL1        0.0044
     20 C          20.5581  -29.2325   13.2634 C.ar    1  UNL1        0.0370
     21 C          21.1234  -27.9668   13.1990 C.ar    1  UNL1        0.1405
     22 C          21.9883  -27.6468   12.1640 C.ar    1  UNL1        0.0517
     23 C          24.4644  -28.5154   10.2547 C.2     1  UNL1        0.4054
     24 O          24.8900  -29.0939   11.2349 O.2     1  UNL1       -0.2261
     25 N          23.1447  -28.2683   10.1381 N.am    1  UNL1       -0.2498
     26 H          22.7909  -27.8616    9.3143 H       1  UNL1        0.1582
     27 O          25.3114  -28.1215    9.2850 O.3     1  UNL1       -0.4345
     28 C          24.8448  -26.6081    7.4350 C.3     1  UNL1        0.0513
     29 C          24.7817  -28.0528    7.9348 C.3     1  UNL1        0.2102
@<TRIPOS>BOND
     1    28    29    1
     2    29    27    1
     3    27    23    1
     4    23    24    2
     5    23    25   am
     6    25    17    1
     7    17    22   ar
     8    17    18   ar
     9    18    19   ar
    10    19    20   ar
    11    20    21   ar
    12    21    22   ar
    13    21    16    1
    14    16     1    1
    15     1     2    1
    16     2     3    2
    17     2     4   am
    18     4     6    1
    19     6    11   ar
    20     6     7   ar
    21     7     8   ar
    22     7    12    1
    23     8     9   ar
    24     9    10   ar
    25    10    11   ar
    26    11    13    1
    27    13    14    1
    28    13    15    1
    29    25    26    1
    30     4     5    1
#	Name:			ZINC20904998
#	Creating user name:	trannguyen
#	Creation time:		Wed Dec  7 14:36:20 2022


#	Modifying user name:	trannguyen
#	Modification time:	Wed Dec  7 14:36:20 2022

@<TRIPOS>MOLECULE
ZINC20904998
 37 39 0 0 0
SMALL
GASTEIGER

@<TRIPOS>ATOM
      1 C          12.4451  -25.8978   15.1732 C.ar    1  UNL1        0.2317
      2 N          13.7520  -26.2738   15.0318 N.ar    1  UNL1       -0.1864
      3 C          14.5084  -25.1409   14.9286 C.ar    1  UNL1        0.2112
      4 N          13.7044  -24.1079   15.0086 N.ar    1  UNL1       -0.1443
      5 N          12.3966  -24.5876   15.1579 N.ar    1  UNL1       -0.2446
      6 H          11.5839  -24.0376   15.2374 H       1  UNL1        0.1919
      7 N          11.3607  -26.7523   15.3085 N.pl3   1  UNL1       -0.2048
      8 H          10.7445  -26.8891   14.5530 H       1  UNL1        0.1775
      9 C          11.8312  -27.0987   17.5719 C.2     1  UNL1        0.1200
     10 N          11.1425  -27.4207   16.5202 N.2     1  UNL1       -0.1774
     11 C          13.0419  -29.9159   18.3803 C.3     1  UNL1        0.0540
     12 C          12.1340  -29.0558   19.2211 C.ar    1  UNL1        0.0816
     13 C          11.6013  -27.8029   18.8488 C.ar    1  UNL1        0.0491
     14 C          10.8314  -27.3565   19.9008 C.ar    1  UNL1        0.0585
     15 N          10.8843  -28.2965   20.8663 N.ar    1  UNL1       -0.2571
     16 N          11.7029  -29.3406   20.4204 N.ar    1  UNL1       -0.1740
     17 C          10.0684  -26.0583   19.9602 C.3     1  UNL1        0.0518
     18 C          10.2056  -28.2330   22.1630 C.3     1  UNL1        0.1049
     19 C           8.8916  -29.0133   22.0895 C.3     1  UNL1        0.0263
     20 C          11.1035  -28.8466   23.2392 C.3     1  UNL1        0.0263
     21 S          16.2582  -25.0784   14.7303 S.3     1  UNL1       -0.0642
     22 C          16.4863  -24.5568   13.0080 C.3     1  UNL1        0.1499
     23 C          17.9520  -24.3289   12.7421 C.2     1  UNL1        0.2342
     24 O          18.3320  -24.0737   11.6190 O.2     1  UNL1       -0.2741
     25 N          18.8405  -24.4086   13.7524 N.am    1  UNL1       -0.2997
     26 H          18.5319  -24.6157   14.6641 H       1  UNL1        0.1498
     27 C          20.2654  -24.1871   13.4940 C.3     1  UNL1        0.1163
     28 C          20.6079  -22.7458   13.7700 C.ar    1  UNL1       -0.0026
     29 C          21.1598  -21.9633   12.7730 C.ar    1  UNL1       -0.0027
     30 C          21.4731  -20.6409   13.0259 C.ar    1  UNL1        0.0036
     31 C          21.2344  -20.1009   14.2758 C.ar    1  UNL1        0.0714
     32 C          20.6837  -20.8838   15.2733 C.ar    1  UNL1        0.0036
     33 C          20.3695  -22.2059   15.0201 C.ar    1  UNL1       -0.0027
     34 C          21.5763  -18.6594   14.5518 C.3     1  UNL1        0.4186
     35 F          21.9431  -18.0302   13.3572 F       1  UNL1       -0.1659
     36 F          20.4625  -18.0120   15.0970 F       1  UNL1       -0.1659
     37 F          22.6410  -18.5978   15.4572 F       1  UNL1       -0.1659
@<TRIPOS>BOND
     1    11    12    1
     2    12    16   ar
     3    12    13   ar
     4    13    14   ar
     5    13     9    1
     6    14    15   ar
     7    14    17    1
     8    15    16   ar
     9    15    18    1
    10    18    19    1
    11    18    20    1
    12     9    10    2
    13    10     7    1
    14     7     1    1
    15     1     5   ar
    16     1     2   ar
    17     2     3   ar
    18     3     4   ar
    19     3    21    1
    20     4     5   ar
    21    21    22    1
    22    22    23    1
    23    23    24    2
    24    23    25   am
    25    25    27    1
    26    27    28    1
    27    28    33   ar
    28    28    29   ar
    29    29    30   ar
    30    30    31   ar
    31    31    32   ar
    32    31    34    1
    33    32    33   ar
    34    34    35    1
    35    34    36    1
    36    34    37    1
    37     7     8    1
    38     5     6    1
    39    25    26    1
#	Name:			ZINC20907043
#	Creating user name:	trannguyen
#	Creation time:		Wed Dec  7 14:36:19 2022


#	Modifying user name:	trannguyen
#	Modification time:	Wed Dec  7 14:36:19 2022

@<TRIPOS>MOLECULE
ZINC20907043
 39 42 0 0 0
SMALL
GASTEIGER

@<TRIPOS>ATOM
      1 C          20.6337  -26.9220   16.6159 C.ar    1  UNL1        0.2112
      2 N          20.0170  -26.2097   15.6267 N.ar    1  UNL1       -0.1864
      3 C          20.8837  -26.1111   14.5738 C.ar    1  UNL1        0.2317
      4 N          21.9874  -26.7409   14.8972 N.ar    1  UNL1       -0.2446
      5 N          21.8311  -27.2503   16.1929 N.ar    1  UNL1       -0.1443
      6 H          22.7855  -26.8386   14.3292 H       1  UNL1        0.1919
      7 N          20.6367  -25.4637   13.3723 N.pl3   1  UNL1       -0.2048
      8 H          20.5143  -25.9869   12.5473 H       1  UNL1        0.1775
      9 N          20.5612  -24.0653   13.3326 N.2     1  UNL1       -0.1773
     10 C          21.2228  -23.3536   14.1968 C.2     1  UNL1        0.1206
     11 C          21.1436  -21.8867   14.1552 C.ar    1  UNL1        0.0544
     12 C          20.7484  -21.1262   15.3393 C.ar    1  UNL1        0.0045
     13 C          20.4339  -21.7638   16.5455 C.ar    1  UNL1        0.0001
     14 C          20.0750  -21.0176   17.6283 C.ar    1  UNL1        0.0000
     15 C          20.0062  -19.6287   17.5488 C.ar    1  UNL1        0.0000
     16 C          20.3060  -18.9768   16.3915 C.ar    1  UNL1        0.0000
     17 C          20.6852  -19.7138   15.2565 C.ar    1  UNL1        0.0002
     18 C          21.0024  -19.0758   14.0446 C.ar    1  UNL1        0.0031
     19 C          21.3673  -19.7987   12.9524 C.ar    1  UNL1        0.0367
     20 C          21.4444  -21.1898   12.9851 C.ar    1  UNL1        0.1351
     21 O          21.8145  -21.8714   11.8701 O.3     1  UNL1       -0.5055
     22 H          21.8672  -22.8067   11.8887 H       1  UNL1        0.2922
     23 S          19.9417  -27.3289   18.1844 S.3     1  UNL1       -0.0642
     24 C          19.9319  -25.7525   19.0819 C.3     1  UNL1        0.1499
     25 N          17.8568  -25.4484   17.7703 N.am    1  UNL1       -0.2997
     26 C          18.7225  -24.9505   18.6753 C.2     1  UNL1        0.2342
     27 O          18.5283  -23.8570   19.1626 O.2     1  UNL1       -0.2741
     28 H          18.0146  -26.3361   17.3748 H       1  UNL1        0.1498
     29 C          16.6811  -24.6688   17.3751 C.3     1  UNL1        0.1165
     30 C          14.6812  -26.0577   14.4839 C.ar    1  UNL1        0.1415
     31 C          15.0637  -25.6999   15.7690 C.ar    1  UNL1        0.0345
     32 C          16.2680  -25.0558   15.9785 C.ar    1  UNL1        0.0035
     33 C          17.0916  -24.7609   14.9089 C.ar    1  UNL1        0.0345
     34 C          16.7160  -25.1212   13.6225 C.ar    1  UNL1        0.1415
     35 C          15.5083  -25.7680   13.4097 C.ar    1  UNL1        0.0737
     36 C          12.3844  -26.2588   15.0639 C.3     1  UNL1        0.2525
     37 O          13.4970  -26.6919   14.2786 O.3     1  UNL1       -0.4713
     38 O          17.5292  -24.8363   12.5717 O.3     1  UNL1       -0.4713
     39 C          17.0430  -23.8962   11.6114 C.3     1  UNL1        0.2525
@<TRIPOS>BOND
     1    36    37    1
     2    37    30    1
     3    30    35   ar
     4    30    31   ar
     5    31    32   ar
     6    32    33   ar
     7    32    29    1
     8    33    34   ar
     9    34    35   ar
    10    34    38    1
    11    38    39    1
    12    29    25    1
    13    25    26   am
    14    26    27    2
    15    26    24    1
    16    24    23    1
    17    23     1    1
    18     1     5   ar
    19     1     2   ar
    20     2     3   ar
    21     3     4   ar
    22     3     7    1
    23     4     5   ar
    24     7     9    1
    25     9    10    2
    26    10    11    1
    27    11    20   ar
    28    11    12   ar
    29    12    17   ar
    30    12    13   ar
    31    13    14   ar
    32    14    15   ar
    33    15    16   ar
    34    16    17   ar
    35    17    18   ar
    36    18    19   ar
    37    19    20   ar
    38    20    21    1
    39    25    28    1
    40     4     6    1
    41     7     8    1
    42    21    22    1
#	Name:			ZINC20910626
#	Creating user name:	trannguyen
#	Creation time:		Wed Dec  7 14:36:19 2022


#	Modifying user name:	trannguyen
#	Modification time:	Wed Dec  7 14:36:19 2022

@<TRIPOS>MOLECULE
ZINC20910626
 37 40 0 0 0
SMALL
GASTEIGER

@<TRIPOS>ATOM
      1 S          11.1652  -28.5317   15.7448 S.3     1  UNL1       -0.0642
      2 C          11.5810  -27.8876   17.3313 C.ar    1  UNL1        0.2112
      3 N          12.8154  -27.9262   17.9152 N.ar    1  UNL1       -0.1864
      4 C          12.7230  -27.3234   19.1390 C.ar    1  UNL1        0.2317
      5 N          11.4823  -26.9341   19.3060 N.ar    1  UNL1       -0.2446
      6 N          10.7598  -27.2863   18.1585 N.ar    1  UNL1       -0.1443
      7 H          11.1215  -26.4750   20.0987 H       1  UNL1        0.1919
      8 N          13.7587  -27.1581   20.0469 N.pl3   1  UNL1       -0.2048
      9 H          13.6446  -27.4457   20.9815 H       1  UNL1        0.1775
     10 N          14.9671  -26.5819   19.6339 N.2     1  UNL1       -0.1773
     11 C          15.8843  -26.3013   20.5079 C.2     1  UNL1        0.1207
     12 C          17.1575  -25.6942   20.0728 C.ar    1  UNL1        0.0603
     13 C          17.4407  -24.3140   19.9888 C.ar    1  UNL1        0.1232
     14 N          18.6682  -24.1759   19.5653 N.ar    1  UNL1       -0.1677
     15 N          19.2213  -25.4453   19.3610 N.ar    1  UNL1       -0.2513
     16 C          18.2903  -26.3695   19.6739 C.ar    1  UNL1        0.0981
     17 C          20.5798  -25.7227   18.8879 C.3     1  UNL1        0.1054
     18 C          20.5345  -26.1180   17.4105 C.3     1  UNL1        0.0263
     19 C          21.4434  -24.4707   19.0546 C.3     1  UNL1        0.0263
     20 C          11.2486  -27.0882   14.6493 C.3     1  UNL1        0.1502
     21 N          13.7129  -26.9684   14.8252 N.am    1  UNL1       -0.2832
     22 C          12.5269  -26.3337   14.9090 C.2     1  UNL1        0.2376
     23 O          12.4884  -25.1552   15.1935 O.2     1  UNL1       -0.2738
     24 H          13.7413  -27.9403   14.6710 H       1  UNL1        0.1549
     25 C          18.8816  -23.4597   14.1503 C.ar    1  UNL1        0.1364
     26 N          18.4439  -24.0618   15.2330 N.ar    1  UNL1       -0.2320
     27 C          17.3073  -24.7940   15.2468 C.ar    1  UNL1        0.0885
     28 C          16.7303  -25.4867   16.3363 C.ar    1  UNL1        0.0209
     29 C          15.5636  -26.1881   16.1837 C.ar    1  UNL1        0.0162
     30 C          14.9055  -26.2448   14.9574 C.ar    1  UNL1        0.0509
     31 C          15.4493  -25.5799   13.8661 C.ar    1  UNL1        0.0227
     32 C          16.6149  -24.8722   14.0173 C.ar    1  UNL1        0.0502
     33 S          17.6392  -23.8966   12.9422 S.2     1  UNL1       -0.0603
     34 S          20.3265  -22.4730   13.9422 S.3     1  UNL1       -0.0885
     35 C          20.8504  -22.3150   15.6675 C.3     1  UNL1        0.0641
     36 C          20.2788  -21.1717   17.8142 C.3     1  UNL1        0.0009
     37 C          20.1925  -21.0816   16.2894 C.3     1  UNL1        0.0121
@<TRIPOS>BOND
     1    36    37    1
     2    37    35    1
     3    35    34    1
     4    34    25    1
     5    25    33   ar
     6    25    26   ar
     7    26    27   ar
     8    27    32   ar
     9    27    28   ar
    10    28    29   ar
    11    29    30   ar
    12    30    31   ar
    13    30    21    1
    14    31    32   ar
    15    32    33   ar
    16    21    22   am
    17    22    23    2
    18    22    20    1
    19    20     1    1
    20     1     2    1
    21     2     6   ar
    22     2     3   ar
    23     3     4   ar
    24     4     5   ar
    25     4     8    1
    26     5     6   ar
    27     8    10    1
    28    10    11    2
    29    11    12    1
    30    12    16   ar
    31    12    13   ar
    32    13    14   ar
    33    14    15   ar
    34    15    16   ar
    35    15    17    1
    36    17    18    1
    37    17    19    1
    38    21    24    1
    39     5     7    1
    40     8     9    1
#	Name:			ZINC20911014
#	Creating user name:	trannguyen
#	Creation time:		Wed Dec  7 14:36:19 2022


#	Modifying user name:	trannguyen
#	Modification time:	Wed Dec  7 14:36:19 2022

@<TRIPOS>MOLECULE
ZINC20911014
 38 41 0 0 0
SMALL
GASTEIGER

@<TRIPOS>ATOM
      1 S          16.0171  -24.8744   14.4426 S.3     1  UNL1       -0.0735
      2 C          12.2731  -25.9785   14.8558 C.ar    1  UNL1        0.2317
      3 N          13.5833  -26.2392   14.5647 N.ar    1  UNL1       -0.1864
      4 C          14.2861  -25.0758   14.7029 C.ar    1  UNL1        0.2107
      5 N          13.4472  -24.1366   15.0690 N.ar    1  UNL1       -0.1443
      6 N          12.1711  -24.7075   15.1610 N.ar    1  UNL1       -0.2446
      7 H          11.3432  -24.2370   15.4110 H       1  UNL1        0.1919
      8 N          11.2340  -26.8973   14.8324 N.pl3   1  UNL1       -0.2048
      9 H          10.3647  -26.6676   15.2333 H       1  UNL1        0.1775
     10 C          10.7267  -29.1712   14.6412 C.2     1  UNL1        0.1207
     11 N          11.4218  -28.1521   14.2384 N.2     1  UNL1       -0.1773
     12 N          11.5428  -32.0786   12.6252 N.ar    1  UNL1       -0.2513
     13 C          11.5919  -30.7477   12.8370 C.ar    1  UNL1        0.0981
     14 C          10.9245  -30.4934   14.0153 C.ar    1  UNL1        0.0603
     15 C          10.4704  -31.7325   14.5158 C.ar    1  UNL1        0.1232
     16 N          10.8374  -32.6671   13.6810 N.ar    1  UNL1       -0.1677
     17 C          13.5090  -32.2047   11.1762 C.3     1  UNL1        0.0263
     18 C          12.1284  -32.7875   11.4847 C.3     1  UNL1        0.1054
     19 C          12.2663  -34.2731   11.8237 C.3     1  UNL1        0.0263
     20 C          16.1289  -23.4646   13.3066 C.3     1  UNL1        0.0748
     21 C          17.0630  -23.8166   12.1471 C.3     1  UNL1        0.0971
     22 C          18.3913  -23.1335   12.3470 C.2     1  UNL1        0.2238
     23 O          18.9845  -22.6708   11.3957 O.2     1  UNL1       -0.2751
     24 N          18.9201  -23.0367   13.5830 N.am    1  UNL1       -0.2986
     25 H          18.4368  -23.4088   14.3557 H       1  UNL1        0.1500
     26 C          20.2142  -22.3780   13.7764 C.3     1  UNL1        0.1169
     27 C          20.2532  -21.7379   15.1402 C.ar    1  UNL1       -0.0003
     28 C          19.8630  -22.4586   16.2533 C.ar    1  UNL1       -0.0024
     29 C          19.9034  -21.8731   17.5049 C.ar    1  UNL1       -0.0003
     30 C          20.3244  -20.5636   17.6421 C.ar    1  UNL1       -0.0000
     31 C          20.7093  -19.8411   16.5282 C.ar    1  UNL1       -0.0003
     32 C          20.6739  -20.4282   15.2773 C.ar    1  UNL1       -0.0024
     33 C          21.3182  -23.3980   13.6685 C.ar    1  UNL1       -0.0003
     34 C          22.6185  -22.9878   13.4406 C.ar    1  UNL1       -0.0024
     35 C          23.6319  -23.9232   13.3464 C.ar    1  UNL1       -0.0003
     36 C          23.3436  -25.2694   13.4702 C.ar    1  UNL1       -0.0000
     37 C          22.0425  -25.6800   13.6924 C.ar    1  UNL1       -0.0003
     38 C          21.0298  -24.7444   13.7917 C.ar    1  UNL1       -0.0024
@<TRIPOS>BOND
     1    17    18    1
     2    18    19    1
     3    18    12    1
     4    12    16   ar
     5    12    13   ar
     6    13    14   ar
     7    14    15   ar
     8    14    10    1
     9    15    16   ar
    10    10    11    2
    11    11     8    1
    12     8     2    1
    13     2     6   ar
    14     2     3   ar
    15     3     4   ar
    16     4     5   ar
    17     4     1    1
    18     5     6   ar
    19     1    20    1
    20    20    21    1
    21    21    22    1
    22    22    23    2
    23    22    24   am
    24    24    26    1
    25    26    27    1
    26    26    33    1
    27    27    32   ar
    28    27    28   ar
    29    28    29   ar
    30    29    30   ar
    31    30    31   ar
    32    31    32   ar
    33    33    38   ar
    34    33    34   ar
    35    34    35   ar
    36    35    36   ar
    37    36    37   ar
    38    37    38   ar
    39     8     9    1
    40     6     7    1
    41    24    25    1
#	Name:			ZINC20912448
#	Creating user name:	trannguyen
#	Creation time:		Wed Dec  7 14:36:19 2022


#	Modifying user name:	trannguyen
#	Modification time:	Wed Dec  7 14:36:19 2022

@<TRIPOS>MOLECULE
ZINC20912448
 38 41 0 0 0
SMALL
GASTEIGER

@<TRIPOS>ATOM
      1 C          19.2700  -26.8617   19.6826 C.ar    1  UNL1        0.2107
      2 N          19.6684  -25.8824   20.4591 N.ar    1  UNL1       -0.1192
      3 N          20.5161  -25.0545   19.7115 N.ar    1  UNL1       -0.1092
      4 C          20.6015  -25.5502   18.5007 C.ar    1  UNL1        0.2542
      5 N          19.8333  -26.6802   18.4516 N.ar    1  UNL1       -0.2106
      6 N          19.6602  -27.4866   17.3626 N.pl3   1  UNL1       -0.2936
      7 H          19.0842  -28.2825   17.4261 H       1  UNL1        0.1628
      8 H          20.1113  -27.2718   16.5143 H       1  UNL1        0.1628
      9 N          21.3409  -25.0208   17.4532 N.pl3   1  UNL1       -0.2033
     10 H          21.8514  -25.6179   16.8599 H       1  UNL1        0.1775
     11 N          21.3612  -23.6362   17.2397 N.2     1  UNL1       -0.1774
     12 C          20.3836  -23.0621   16.6028 C.2     1  UNL1        0.1176
     13 C          20.4050  -21.6092   16.3787 C.ar    1  UNL1        0.0207
     14 C          19.9971  -20.7310   17.3762 C.ar    1  UNL1        0.0016
     15 C          20.0254  -19.3597   17.1639 C.ar    1  UNL1        0.0000
     16 C          20.4346  -18.8242   15.9810 C.ar    1  UNL1        0.0000
     17 C          20.8546  -19.6519   14.9264 C.ar    1  UNL1        0.0000
     18 C          20.8502  -21.0576   15.1001 C.ar    1  UNL1        0.0015
     19 C          21.2692  -21.8856   14.0522 C.ar    1  UNL1        0.0000
     20 C          21.6763  -21.3298   12.8759 C.ar    1  UNL1        0.0000
     21 C          21.6819  -19.9479   12.7016 C.ar    1  UNL1        0.0000
     22 C          21.2812  -19.1135   13.7000 C.ar    1  UNL1        0.0000
     23 S          18.1916  -28.1763   20.1443 S.3     1  UNL1       -0.0643
     24 C          16.6466  -27.2568   20.3531 C.3     1  UNL1        0.1502
     25 N          16.1775  -27.0842   17.9306 N.am    1  UNL1       -0.2620
     26 C          16.3665  -26.4557   19.1076 C.2     1  UNL1        0.2390
     27 O          16.3113  -25.2453   19.1648 O.2     1  UNL1       -0.2738
     28 H          16.2223  -28.0666   17.8842 H       1  UNL1        0.1568
     29 C          15.7891  -24.8500   14.5789 C.ar    1  UNL1        0.1606
     30 N          14.7173  -25.4337   15.0949 N.ar    1  UNL1       -0.1332
     31 N          14.7800  -26.1410   16.1372 N.ar    1  UNL1       -0.1248
     32 C          15.9186  -26.3439   16.7795 C.ar    1  UNL1        0.1886
     33 S          17.0317  -25.3945   15.7473 S.2     1  UNL1       -0.0241
     34 S          15.9465  -23.8303   13.1506 S.3     1  UNL1       -0.0866
     35 C          16.9975  -24.7987   12.0335 C.3     1  UNL1        0.0642
     36 C          18.2678  -22.6852   12.4357 C.3     1  UNL1        0.0009
     37 C          18.3563  -24.1107   11.8870 C.3     1  UNL1        0.0112
     38 C          19.4117  -24.8941   12.6701 C.3     1  UNL1        0.0009
@<TRIPOS>BOND
     1    36    37    1
     2    37    38    1
     3    37    35    1
     4    35    34    1
     5    34    29    1
     6    29    33   ar
     7    29    30   ar
     8    30    31   ar
     9    31    32   ar
    10    32    33   ar
    11    32    25    1
    12    25    26   am
    13    26    27    2
    14    26    24    1
    15    24    23    1
    16    23     1    1
    17     1     5   ar
    18     1     2   ar
    19     2     3   ar
    20     3     4   ar
    21     4     5   ar
    22     4     9    1
    23     5     6    1
    24     9    11    1
    25    11    12    2
    26    12    13    1
    27    13    18   ar
    28    13    14   ar
    29    14    15   ar
    30    15    16   ar
    31    16    17   ar
    32    17    22   ar
    33    17    18   ar
    34    18    19   ar
    35    19    20   ar
    36    20    21   ar
    37    21    22   ar
    38    25    28    1
    39     6     7    1
    40     6     8    1
    41     9    10    1
#	Name:			ZINC20917497
#	Creating user name:	trannguyen
#	Creation time:		Wed Dec  7 14:36:19 2022


#	Modifying user name:	trannguyen
#	Modification time:	Wed Dec  7 14:36:19 2022

@<TRIPOS>MOLECULE
ZINC20917497
 38 41 0 0 0
SMALL
GASTEIGER

@<TRIPOS>ATOM
      1 S          11.3194  -28.1746   15.5959 S.3     1  UNL1       -0.0643
      2 C          11.7718  -27.7358   17.2413 C.ar    1  UNL1        0.2107
      3 N          11.0010  -27.1402   18.1200 N.ar    1  UNL1       -0.1192
      4 N          11.7367  -26.9777   19.3012 N.ar    1  UNL1       -0.1092
      5 C          12.9350  -27.4709   19.1031 C.ar    1  UNL1        0.2542
      6 N          12.9866  -27.9556   17.8257 N.ar    1  UNL1       -0.2106
      7 N          14.0639  -28.5546   17.2371 N.pl3   1  UNL1       -0.2936
      8 H          14.0034  -28.8724   16.3073 H       1  UNL1        0.1628
      9 H          14.9009  -28.6685   17.7428 H       1  UNL1        0.1628
     10 N          13.9679  -27.5011   20.0291 N.pl3   1  UNL1       -0.2033
     11 H          13.7944  -27.8013   20.9505 H       1  UNL1        0.1775
     12 N          15.2577  -27.1043   19.6528 N.2     1  UNL1       -0.1774
     13 C          15.7831  -26.0331   20.1657 C.2     1  UNL1        0.1176
     14 C          17.1405  -25.6156   19.7698 C.ar    1  UNL1        0.0207
     15 C          17.4450  -24.2592   19.6306 C.ar    1  UNL1        0.0013
     16 C          18.7184  -23.8758   19.2646 C.ar    1  UNL1       -0.0042
     17 C          19.6904  -24.8312   19.0256 C.ar    1  UNL1       -0.0218
     18 C          19.3945  -26.1767   19.1563 C.ar    1  UNL1       -0.0042
     19 C          18.1268  -26.5747   19.5263 C.ar    1  UNL1        0.0013
     20 C          21.0777  -24.4045   18.6205 C.3     1  UNL1        0.0310
     21 C          11.6538  -26.6734   14.6338 C.3     1  UNL1        0.1502
     22 N          13.6308  -25.2129   14.9110 N.am    1  UNL1       -0.2832
     23 C          13.1397  -26.4260   14.5891 C.2     1  UNL1        0.2376
     24 O          13.8936  -27.3186   14.2634 O.2     1  UNL1       -0.2738
     25 H          13.0163  -24.4674   15.0999 H       1  UNL1        0.1549
     26 C          19.6751  -23.7272   14.0509 C.ar    1  UNL1        0.1364
     27 N          19.1304  -24.3600   15.0652 N.ar    1  UNL1       -0.2320
     28 C          17.8053  -24.6208   15.1308 C.ar    1  UNL1        0.0885
     29 C          17.0982  -25.2875   16.1581 C.ar    1  UNL1        0.0209
     30 C          15.7437  -25.4724   16.0722 C.ar    1  UNL1        0.0162
     31 C          15.0161  -25.0129   14.9768 C.ar    1  UNL1        0.0509
     32 C          15.6817  -24.3591   13.9482 C.ar    1  UNL1        0.0227
     33 C          17.0376  -24.1679   14.0340 C.ar    1  UNL1        0.0502
     34 S          18.2659  -23.4079   12.9992 S.2     1  UNL1       -0.0603
     35 S          21.3655  -23.3021   13.7925 S.3     1  UNL1       -0.0885
     36 C          21.4905  -21.8467   14.8614 C.3     1  UNL1        0.0641
     37 C          21.5833  -19.3539   14.7222 C.3     1  UNL1        0.0009
     38 C          20.9737  -20.6173   14.1114 C.3     1  UNL1        0.0121
@<TRIPOS>BOND
     1    37    38    1
     2    38    36    1
     3    36    35    1
     4    35    26    1
     5    26    34   ar
     6    26    27   ar
     7    27    28   ar
     8    28    33   ar
     9    28    29   ar
    10    29    30   ar
    11    30    31   ar
    12    31    32   ar
    13    31    22    1
    14    32    33   ar
    15    33    34   ar
    16    22    23   am
    17    23    24    2
    18    23    21    1
    19    21     1    1
    20     1     2    1
    21     2     6   ar
    22     2     3   ar
    23     3     4   ar
    24     4     5   ar
    25     5     6   ar
    26     5    10    1
    27     6     7    1
    28    10    12    1
    29    12    13    2
    30    13    14    1
    31    14    19   ar
    32    14    15   ar
    33    15    16   ar
    34    16    17   ar
    35    17    18   ar
    36    17    20    1
    37    18    19   ar
    38    22    25    1
    39     7     8    1
    40     7     9    1
    41    10    11    1
#	Name:			ZINC20918144
#	Creating user name:	trannguyen
#	Creation time:		Wed Dec  7 14:36:19 2022


#	Modifying user name:	trannguyen
#	Modification time:	Wed Dec  7 14:36:19 2022

@<TRIPOS>MOLECULE
ZINC20918144
 40 43 0 0 0
SMALL
GASTEIGER

@<TRIPOS>ATOM
      1 C          19.1785  -25.4492   19.6398 C.3     1  UNL1        0.0748
      2 C          20.6764  -25.4320   19.3289 C.3     1  UNL1        0.0974
      3 N          20.0801  -23.5454   17.8442 N.am    1  UNL1       -0.2788
      4 C          21.0199  -24.1689   18.5819 C.2     1  UNL1        0.2274
      5 O          22.1423  -23.7136   18.6447 O.2     1  UNL1       -0.2747
      6 H          19.1690  -23.9150   17.7933 H       1  UNL1        0.1553
      7 C          20.9222  -22.2533   15.8788 C.ar    1  UNL1        0.0915
      8 C          21.1597  -20.9070   15.3851 C.ar    1  UNL1       -0.0122
      9 C          20.8465  -19.9150   16.2462 C.ar    1  UNL1        0.0047
     10 S          20.2375  -20.7421   17.6881 S.2     1  UNL1       -0.0767
     11 C          20.3960  -22.3838   17.1573 C.ar    1  UNL1        0.0863
     12 C          20.9896  -18.4418   16.0175 C.3     1  UNL1        0.0327
     13 C          21.8971  -18.2276   14.7973 C.3     1  UNL1        0.0055
     14 C          21.4209  -19.1390   13.6624 C.3     1  UNL1        0.0050
     15 C          21.7262  -20.5984   14.0046 C.3     1  UNL1        0.0268
     16 C          21.2225  -23.4277   15.0573 C.2     1  UNL1        0.3426
     17 O          22.3724  -23.8041   14.9318 O.2     1  UNL1       -0.2448
     18 O          20.2242  -24.0921   14.4399 O.3     1  UNL1       -0.4454
     19 C          18.6247  -22.7551   13.1812 C.3     1  UNL1        0.0513
     20 C          19.8642  -23.6488   13.1049 C.3     1  UNL1        0.2089
     21 S          18.3958  -26.8343   18.7681 S.3     1  UNL1       -0.0736
     22 C          17.5248  -26.0664   17.4430 C.ar    1  UNL1        0.2103
     23 N          18.0152  -25.1809   16.6086 N.ar    1  UNL1       -0.1192
     24 N          17.0023  -24.8285   15.7069 N.ar    1  UNL1       -0.1092
     25 C          15.9245  -25.5038   16.0244 C.ar    1  UNL1        0.2542
     26 N          16.2205  -26.2890   17.1039 N.ar    1  UNL1       -0.2106
     27 N          15.3624  -27.1457   17.7330 N.pl3   1  UNL1       -0.2936
     28 H          15.6704  -27.6711   18.5065 H       1  UNL1        0.1628
     29 H          14.4359  -27.2377   17.4128 H       1  UNL1        0.1628
     30 N          14.7000  -25.4379   15.3752 N.pl3   1  UNL1       -0.2033
     31 H          14.3862  -24.5827   15.0018 H       1  UNL1        0.1775
     32 N          13.9102  -26.5884   15.2509 N.2     1  UNL1       -0.1774
     33 C          13.8996  -27.2511   14.1342 C.2     1  UNL1        0.1176
     34 C          13.0686  -28.4619   14.0034 C.ar    1  UNL1        0.0207
     35 C          13.3797  -29.6095   14.7372 C.ar    1  UNL1        0.0013
     36 C          12.5952  -30.7371   14.6131 C.ar    1  UNL1       -0.0042
     37 C          11.5082  -30.7368   13.7567 C.ar    1  UNL1       -0.0218
     38 C          11.1968  -29.6056   13.0233 C.ar    1  UNL1       -0.0042
     39 C          11.9695  -28.4691   13.1408 C.ar    1  UNL1        0.0013
     40 C          10.6596  -31.9749   13.6219 C.3     1  UNL1        0.0310
@<TRIPOS>BOND
     1    19    20    1
     2    20    18    1
     3    18    16    1
     4    16    17    2
     5    16     7    1
     6     7    11   ar
     7     7     8   ar
     8     8    15    1
     9     8     9   ar
    10     9    10   ar
    11     9    12    1
    12    10    11   ar
    13    11     3    1
    14     3     4   am
    15     4     5    2
    16     4     2    1
    17     2     1    1
    18     1    21    1
    19    21    22    1
    20    22    26   ar
    21    22    23   ar
    22    23    24   ar
    23    24    25   ar
    24    25    26   ar
    25    25    30    1
    26    26    27    1
    27    30    32    1
    28    32    33    2
    29    33    34    1
    30    34    39   ar
    31    34    35   ar
    32    35    36   ar
    33    36    37   ar
    34    37    38   ar
    35    37    40    1
    36    38    39   ar
    37    12    13    1
    38    13    14    1
    39    14    15    1
    40     3     6    1
    41    27    28    1
    42    27    29    1
    43    30    31    1
#	Name:			ZINC20920275
#	Creating user name:	trannguyen
#	Creation time:		Wed Dec  7 14:36:19 2022


#	Modifying user name:	trannguyen
#	Modification time:	Wed Dec  7 14:36:19 2022

@<TRIPOS>MOLECULE
ZINC20920275
 41 43 0 0 0
SMALL
GASTEIGER

@<TRIPOS>ATOM
      1 C          13.1783  -26.9457   15.4386 C.ar    1  UNL1        0.2103
      2 N          14.2109  -27.6565   15.0522 N.ar    1  UNL1       -0.1192
      3 N          15.1186  -26.7945   14.4230 N.ar    1  UNL1       -0.1092
      4 C          14.6150  -25.5844   14.4524 C.ar    1  UNL1        0.2542
      5 N          13.4011  -25.6471   15.0782 N.ar    1  UNL1       -0.2106
      6 N          12.5589  -24.5956   15.3038 N.pl3   1  UNL1       -0.2936
      7 H          11.7015  -24.7417   15.7652 H       1  UNL1        0.1628
      8 H          12.8092  -23.6915   15.0051 H       1  UNL1        0.1628
      9 N          15.2072  -24.4419   13.9339 N.pl3   1  UNL1       -0.2033
     10 H          14.6652  -23.7907   13.4326 H       1  UNL1        0.1775
     11 N          16.5766  -24.2150   14.1239 N.2     1  UNL1       -0.1774
     12 C          17.3015  -23.7619   13.1462 C.2     1  UNL1        0.1178
     13 C          18.7423  -23.5231   13.3459 C.ar    1  UNL1        0.0269
     14 C          19.4736  -24.3395   14.2124 C.ar    1  UNL1        0.0419
     15 C          20.8269  -24.1165   14.3933 C.ar    1  UNL1        0.1755
     16 C          21.4573  -23.0733   13.7225 C.ar    1  UNL1        0.2061
     17 C          20.7306  -22.2549   12.8635 C.ar    1  UNL1        0.1755
     18 C          19.3783  -22.4763   12.6738 C.ar    1  UNL1        0.0419
     19 O          21.3503  -21.2360   12.2098 O.3     1  UNL1       -0.4683
     20 C          21.3199  -19.9510   12.8343 C.3     1  UNL1        0.2526
     21 O          22.7871  -22.8526   13.9072 O.3     1  UNL1       -0.4654
     22 C          23.6888  -23.6054   13.0932 C.3     1  UNL1        0.2528
     23 O          21.5406  -24.9140   15.2325 O.3     1  UNL1       -0.4683
     24 C          21.3647  -26.3252   15.0924 C.3     1  UNL1        0.2526
     25 S          11.7540  -27.5587   16.2753 S.3     1  UNL1       -0.0736
     26 C          12.1973  -27.4534   18.0312 C.3     1  UNL1        0.0748
     27 C          13.1942  -28.5628   18.3729 C.3     1  UNL1        0.0974
     28 N          14.8097  -26.7060   18.1266 N.am    1  UNL1       -0.2839
     29 C          14.5713  -27.9705   18.5272 C.2     1  UNL1        0.2270
     30 O          15.4651  -28.6318   19.0117 O.2     1  UNL1       -0.2747
     31 H          14.1037  -26.1924   17.6715 H       1  UNL1        0.1549
     32 C          18.5341  -24.9701   18.8142 C.ar    1  UNL1       -0.0224
     33 C          18.2403  -25.5043   17.5730 C.ar    1  UNL1       -0.0030
     34 C          17.0067  -26.0803   17.3418 C.ar    1  UNL1        0.0143
     35 C          16.0605  -26.1229   18.3576 C.ar    1  UNL1        0.0503
     36 C          16.3564  -25.5805   19.6012 C.ar    1  UNL1        0.0143
     37 C          17.5940  -25.0105   19.8276 C.ar    1  UNL1       -0.0030
     38 C          19.8812  -24.3422   19.0630 C.3     1  UNL1        0.0223
     39 C          20.0196  -23.0782   18.2119 C.3     1  UNL1        0.0047
     40 C          21.1270  -26.3814   19.7921 C.3     1  UNL1        0.0003
     41 C          20.9837  -25.3338   18.6863 C.3     1  UNL1        0.0044
@<TRIPOS>BOND
     1    40    41    1
     2    41    38    1
     3    38    39    1
     4    38    32    1
     5    32    37   ar
     6    32    33   ar
     7    33    34   ar
     8    34    35   ar
     9    35    36   ar
    10    35    28    1
    11    36    37   ar
    12    28    29   am
    13    29    30    2
    14    29    27    1
    15    27    26    1
    16    26    25    1
    17    25     1    1
    18     1     5   ar
    19     1     2   ar
    20     2     3   ar
    21     3     4   ar
    22     4     5   ar
    23     4     9    1
    24     5     6    1
    25     9    11    1
    26    11    12    2
    27    12    13    1
    28    13    18   ar
    29    13    14   ar
    30    14    15   ar
    31    15    16   ar
    32    15    23    1
    33    16    17   ar
    34    16    21    1
    35    17    18   ar
    36    17    19    1
    37    19    20    1
    38    21    22    1
    39    23    24    1
    40    28    31    1
    41     6     7    1
    42     6     8    1
    43     9    10    1
#	Name:			ZINC20958888
#	Creating user name:	trannguyen
#	Creation time:		Wed Dec  7 14:36:20 2022


#	Modifying user name:	trannguyen
#	Modification time:	Wed Dec  7 14:36:20 2022

@<TRIPOS>MOLECULE
ZINC20958888
 31 33 0 0 0
SMALL
GASTEIGER

@<TRIPOS>ATOM
      1 C          16.4144  -23.9948   11.3386 C.ar    1  UNL1        0.0002
      2 C          17.6590  -23.5069   10.9720 C.ar    1  UNL1        0.0013
      3 C          18.7428  -23.6556   11.8122 C.ar    1  UNL1        0.0148
      4 C          18.5912  -24.2926   13.0380 C.ar    1  UNL1        0.0527
      5 C          17.3334  -24.7924   13.4099 C.ar    1  UNL1        0.0667
      6 C          16.2455  -24.6336   12.5473 C.ar    1  UNL1        0.0058
      7 C          17.1596  -25.4751   14.7049 C.2     1  UNL1        0.2471
      8 O          17.5958  -24.9703   15.7217 O.2     1  UNL1       -0.2701
      9 N          16.5175  -26.6587   14.7620 N.am    1  UNL1       -0.3008
     10 H          16.1644  -27.0673   13.9388 H       1  UNL1        0.1497
     11 C          16.3449  -27.3372   16.0490 C.3     1  UNL1        0.0915
     12 C          14.9435  -27.9468   16.1202 C.3     1  UNL1        0.0427
     13 C          13.8977  -26.8413   15.9620 C.3     1  UNL1        0.0952
     14 N          12.8026  -27.3225   15.1161 N.am    1  UNL1       -0.2795
     15 C          12.6198  -28.7223   14.7149 C.3     1  UNL1        0.0939
     16 C          11.1546  -28.8223   14.2303 C.3     1  UNL1        0.0311
     17 C          10.8704  -27.3675   13.7900 C.3     1  UNL1        0.0870
     18 C          11.8393  -26.5378   14.6032 C.2     1  UNL1        0.2257
     19 O          11.7589  -25.3389   14.7680 O.2     1  UNL1       -0.2749
     20 N          19.6797  -24.4382   13.8887 N.pl3   1  UNL1       -0.3124
     21 H          19.9409  -25.3331   14.2051 H       1  UNL1        0.1522
     22 C          20.4050  -23.3126   14.2960 C.ar    1  UNL1        0.0485
     23 C          21.7091  -23.1295   13.8550 C.ar    1  UNL1        0.0177
     24 C          22.4218  -22.0154   14.2524 C.ar    1  UNL1        0.0384
     25 C          21.8399  -21.0857   15.1016 C.ar    1  UNL1        0.1444
     26 C          20.5393  -21.2708   15.5471 C.ar    1  UNL1        0.0384
     27 C          19.8229  -22.3811   15.1458 C.ar    1  UNL1        0.0177
     28 O          22.5445  -19.9921   15.4973 O.3     1  UNL1       -0.4236
     29 C          21.9563  -18.7146   15.2436 C.3     1  UNL1        0.5087
     30 F          22.5430  -17.7571   16.0780 F       1  UNL1       -0.1550
     31 F          22.1683  -18.3609   13.9068 F       1  UNL1       -0.1550
@<TRIPOS>BOND
     1     1     6   ar
     2     1     2   ar
     3     2     3   ar
     4     3     4   ar
     5     4     5   ar
     6     4    20    1
     7     5     6   ar
     8     5     7    1
     9     7     8    2
    10     7     9   am
    11     9    11    1
    12    11    12    1
    13    12    13    1
    14    13    14    1
    15    14    18   am
    16    14    15    1
    17    15    16    1
    18    16    17    1
    19    17    18    1
    20    18    19    2
    21    20    22    1
    22    22    27   ar
    23    22    23   ar
    24    23    24   ar
    25    24    25   ar
    26    25    26   ar
    27    25    28    1
    28    26    27   ar
    29    28    29    1
    30    29    30    1
    31    29    31    1
    32     9    10    1
    33    20    21    1
#	Name:			ZINC21036914
#	Creating user name:	trannguyen
#	Creation time:		Wed Dec  7 14:36:20 2022


#	Modifying user name:	trannguyen
#	Modification time:	Wed Dec  7 14:36:20 2022

@<TRIPOS>MOLECULE
ZINC21036914
 35 37 0 0 0
SMALL
GASTEIGER

@<TRIPOS>ATOM
      1 C          18.8221  -25.7358   16.7482 C.ar    1  UNL1        0.2112
      2 N          19.8009  -26.1645   17.5741 N.ar    1  UNL1       -0.1443
      3 N          21.0117  -25.9696   16.8904 N.ar    1  UNL1       -0.2446
      4 C          20.7132  -25.4500   15.7237 C.ar    1  UNL1        0.2317
      5 N          19.3852  -25.3130   15.6359 N.ar    1  UNL1       -0.1864
      6 H          21.9134  -26.1827   17.2234 H       1  UNL1        0.1919
      7 N          21.6309  -25.1015   14.7332 N.pl3   1  UNL1       -0.2048
      8 H          22.2322  -25.7843   14.3570 H       1  UNL1        0.1775
      9 N          21.6972  -23.7799   14.2734 N.2     1  UNL1       -0.1774
     10 C          21.4537  -22.7969   15.0858 C.2     1  UNL1        0.1176
     11 C          21.5235  -21.4058   14.6018 C.ar    1  UNL1        0.0223
     12 C          21.3944  -21.1298   13.2382 C.ar    1  UNL1        0.0017
     13 C          21.4603  -19.8263   12.7928 C.ar    1  UNL1        0.0018
     14 C          21.6532  -18.7928   13.6928 C.ar    1  UNL1        0.0241
     15 C          21.7814  -19.0586   15.0446 C.ar    1  UNL1        0.1429
     16 C          21.7132  -20.3572   15.5050 C.ar    1  UNL1        0.0257
     17 N          21.9869  -17.9465   15.9995 N.pl3   1  UNL1        0.0577
     18 O          23.0749  -17.7869   16.5234 O.2     1  UNL1       -0.1261
     19 O          21.0681  -17.1912   16.2615 O.2     1  UNL1       -0.1261
     20 S          17.0947  -25.7476   17.0954 S.3     1  UNL1       -0.0642
     21 C          16.5231  -24.5263   15.8880 C.3     1  UNL1        0.1502
     22 N          14.8906  -26.3207   15.4053 N.am    1  UNL1       -0.2620
     23 C          15.3575  -25.0898   15.1167 C.2     1  UNL1        0.2390
     24 O          14.8396  -24.4356   14.2364 O.2     1  UNL1       -0.2738
     25 H          15.3109  -26.8517   16.1199 H       1  UNL1        0.1568
     26 C          11.5376  -27.6660   13.5820 C.ar    1  UNL1        0.1607
     27 N          12.7208  -27.9930   13.0831 N.ar    1  UNL1       -0.1331
     28 N          13.7978  -27.6019   13.6101 N.ar    1  UNL1       -0.1248
     29 C          13.8133  -26.8416   14.6926 C.ar    1  UNL1        0.1886
     30 S          12.0539  -26.6741   14.9804 S.2     1  UNL1       -0.0241
     31 S           9.9189  -28.0861   13.0272 S.3     1  UNL1       -0.0840
     32 C           9.2324  -29.0743   14.3846 C.3     1  UNL1        0.0962
     33 C          10.2345  -30.1598   14.7827 C.3     1  UNL1        0.1543
     34 C          10.9174  -32.2814   13.9010 C.3     1  UNL1        0.1741
     35 O           9.8309  -31.4099   14.2205 O.3     1  UNL1       -0.3502
@<TRIPOS>BOND
     1    34    35    1
     2    35    33    1
     3    33    32    1
     4    32    31    1
     5    31    26    1
     6    26    30   ar
     7    26    27   ar
     8    27    28   ar
     9    28    29   ar
    10    29    30   ar
    11    29    22    1
    12    22    23   am
    13    23    24    2
    14    23    21    1
    15    21    20    1
    16    20     1    1
    17     1     5   ar
    18     1     2   ar
    19     2     3   ar
    20     3     4   ar
    21     4     5   ar
    22     4     7    1
    23     7     9    1
    24     9    10    2
    25    10    11    1
    26    11    16   ar
    27    11    12   ar
    28    12    13   ar
    29    13    14   ar
    30    14    15   ar
    31    15    16   ar
    32    15    17    1
    33    17    18    2
    34    17    19    2
    35    22    25    1
    36     3     6    1
    37     7     8    1
#	Name:			ZINC21038552
#	Creating user name:	trannguyen
#	Creation time:		Wed Dec  7 14:36:19 2022


#	Modifying user name:	trannguyen
#	Modification time:	Wed Dec  7 14:36:19 2022

@<TRIPOS>MOLECULE
ZINC21038552
 39 41 0 0 0
SMALL
GASTEIGER

@<TRIPOS>ATOM
      1 N          17.2058  -24.7555   14.6921 N.am    1  UNL1       -0.2832
      2 C          17.1353  -26.0491   14.3206 C.2     1  UNL1        0.2376
      3 O          17.9830  -26.5174   13.5905 O.2     1  UNL1       -0.2738
      4 H          16.4826  -24.3572   15.2285 H       1  UNL1        0.1549
      5 C          20.4839  -22.4420   13.5705 C.ar    1  UNL1        0.1220
      6 C          19.2414  -22.1921   13.0173 C.ar    1  UNL1        0.0212
      7 C          18.1527  -22.9572   13.3870 C.ar    1  UNL1        0.0160
      8 C          18.3067  -23.9784   14.3155 C.ar    1  UNL1        0.0504
      9 C          19.5546  -24.2230   14.8735 C.ar    1  UNL1        0.0160
     10 C          20.6406  -23.4583   14.4950 C.ar    1  UNL1        0.0212
     11 S          21.8703  -21.4634   13.0961 S.O2    1  UNL1        0.0602
     12 O          22.9814  -22.3456   13.0153 O.2     1  UNL1       -0.1530
     13 O          21.4485  -20.6671   11.9975 O.2     1  UNL1       -0.1530
     14 N          22.1835  -20.4207   14.3439 N.3     1  UNL1       -0.1794
     15 H          22.2226  -20.9825   15.1944 H       1  UNL1        0.1488
     16 C          21.2711  -19.3070   14.6144 C.3     1  UNL1        0.0914
     17 C          21.4731  -18.8194   16.0505 C.3     1  UNL1        0.0188
     18 C          20.2434  -19.1765   16.8880 C.3     1  UNL1        0.0015
     19 C          19.9946  -20.6842   16.8115 C.3     1  UNL1        0.0000
     20 C          19.9752  -22.7516   18.2143 C.3     1  UNL1        0.0000
     21 C          20.5953  -21.3633   18.0439 C.3     1  UNL1        0.0000
     22 C          16.0032  -26.9137   14.8125 C.3     1  UNL1        0.1502
     23 S          14.8960  -25.9249   15.8550 S.3     1  UNL1       -0.0642
     24 C          13.3101  -26.1425   15.1186 C.ar    1  UNL1        0.2112
     25 N          12.8597  -27.2754   14.5026 N.ar    1  UNL1       -0.1864
     26 C          11.5832  -27.0431   14.0715 C.ar    1  UNL1        0.2317
     27 N          11.2588  -25.8179   14.4072 N.ar    1  UNL1       -0.2446
     28 N          12.3527  -25.2470   15.0707 N.ar    1  UNL1       -0.1443
     29 H          10.3978  -25.3766   14.2250 H       1  UNL1        0.1919
     30 N          10.7734  -27.9451   13.3964 N.pl3   1  UNL1       -0.2048
     31 H           9.8512  -27.6961   13.1582 H       1  UNL1        0.1775
     32 N          11.2682  -29.2103   13.0538 N.2     1  UNL1       -0.1774
     33 C          10.8409  -30.2656   13.6784 C.2     1  UNL1        0.1191
     34 C          11.3615  -31.5970   13.3179 C.ar    1  UNL1        0.0399
     35 C          11.3537  -32.6421   14.2514 C.ar    1  UNL1        0.0047
     36 C          11.8485  -33.8734   13.8607 C.ar    1  UNL1        0.0207
     37 C          12.3409  -34.0295   12.5771 C.ar    1  UNL1        0.0989
     38 N          12.3410  -33.0264   11.7204 N.ar    1  UNL1       -0.2423
     39 C          11.8766  -31.8368   12.0418 C.ar    1  UNL1        0.1004
@<TRIPOS>BOND
     1    20    21    1
     2    21    19    1
     3    19    18    1
     4    18    17    1
     5    17    16    1
     6    16    14    1
     7    14    11    1
     8    11    12    2
     9    11    13    2
    10    11     5    1
    11     5    10   ar
    12     5     6   ar
    13     6     7   ar
    14     7     8   ar
    15     8     9   ar
    16     8     1    1
    17     9    10   ar
    18     1     2   am
    19     2     3    2
    20     2    22    1
    21    22    23    1
    22    23    24    1
    23    24    28   ar
    24    24    25   ar
    25    25    26   ar
    26    26    27   ar
    27    26    30    1
    28    27    28   ar
    29    30    32    1
    30    32    33    2
    31    33    34    1
    32    34    39   ar
    33    34    35   ar
    34    35    36   ar
    35    36    37   ar
    36    37    38   ar
    37    38    39   ar
    38    14    15    1
    39     1     4    1
    40    27    29    1
    41    30    31    1
#	Name:			ZINC21039487
#	Creating user name:	trannguyen
#	Creation time:		Wed Dec  7 14:36:20 2022


#	Modifying user name:	trannguyen
#	Modification time:	Wed Dec  7 14:36:20 2022

@<TRIPOS>MOLECULE
ZINC21039487
 40 43 0 0 0
SMALL
GASTEIGER

@<TRIPOS>ATOM
      1 C          22.6409  -22.2131   14.1464 C.ar    1  UNL1        0.2346
      2 N          22.6386  -21.2610   15.0865 N.ar    1  UNL1       -0.3033
      3 C          21.9956  -20.2017   14.6421 C.ar    1  UNL1        0.1909
      4 N          21.5776  -20.4649   13.3852 N.ar    1  UNL1       -0.1210
      5 N          22.0060  -21.7686   13.0883 N.ar    1  UNL1       -0.1110
      6 H          23.0544  -21.3406   15.9753 H       1  UNL1        0.1706
      7 N          23.2277  -23.4720   14.2698 N.pl3   1  UNL1       -0.2047
      8 H          23.7639  -23.6893   15.0664 H       1  UNL1        0.1775
      9 C          23.8304  -25.4671   13.2098 C.2     1  UNL1        0.1177
     10 N          23.0541  -24.4278   13.2602 N.2     1  UNL1       -0.1774
     11 C          23.2997  -28.3680   10.1512 C.ar    1  UNL1        0.1724
     12 C          22.3905  -28.2878   11.1957 C.ar    1  UNL1        0.0401
     13 C          22.5621  -27.3509   12.1932 C.ar    1  UNL1        0.0049
     14 C          23.6478  -26.4727   12.1473 C.ar    1  UNL1        0.0239
     15 C          24.5633  -26.5540   11.0949 C.ar    1  UNL1        0.0416
     16 C          24.3874  -27.4993   10.1015 C.ar    1  UNL1        0.1724
     17 C          23.3179  -30.6658    9.5388 C.3     1  UNL1        0.2526
     18 O          23.1288  -29.2972    9.1734 O.3     1  UNL1       -0.4684
     19 O          25.2763  -27.5809    9.0755 O.3     1  UNL1       -0.4684
     20 C          25.9800  -26.3859    8.7304 C.3     1  UNL1        0.2526
     21 S          21.7332  -18.7017   15.5284 S.3     1  UNL1       -0.0753
     22 C          20.0211  -18.9472   16.0618 C.3     1  UNL1        0.0747
     23 C          20.0028  -19.4158   17.5182 C.3     1  UNL1        0.0971
     24 C          20.4057  -20.8664   17.5841 C.2     1  UNL1        0.2238
     25 O          21.4294  -21.1864   18.1503 O.2     1  UNL1       -0.2751
     26 N          19.6283  -21.8084   17.0139 N.am    1  UNL1       -0.2986
     27 H          18.7952  -21.5491   16.5578 H       1  UNL1        0.1500
     28 C          20.0230  -23.2179   17.0729 C.3     1  UNL1        0.1169
     29 C          19.2086  -23.9239   18.1262 C.ar    1  UNL1       -0.0003
     30 C          17.8307  -23.9625   18.0239 C.ar    1  UNL1       -0.0024
     31 C          17.0839  -24.6143   18.9876 C.ar    1  UNL1       -0.0003
     32 C          17.7147  -25.2189   20.0587 C.ar    1  UNL1       -0.0000
     33 C          19.0923  -25.1754   20.1641 C.ar    1  UNL1       -0.0003
     34 C          19.8394  -24.5282   19.1977 C.ar    1  UNL1       -0.0024
     35 C          19.7800  -23.8641   15.7332 C.ar    1  UNL1       -0.0003
     36 C          20.2026  -25.1601   15.5042 C.ar    1  UNL1       -0.0024
     37 C          19.9754  -25.7545   14.2770 C.ar    1  UNL1       -0.0003
     38 C          19.3345  -25.0494   13.2756 C.ar    1  UNL1       -0.0000
     39 C          18.9169  -23.7513   13.5028 C.ar    1  UNL1       -0.0003
     40 C          19.1395  -23.1587   14.7317 C.ar    1  UNL1       -0.0024
@<TRIPOS>BOND
     1    17    18    1
     2    18    11    1
     3    11    16   ar
     4    11    12   ar
     5    12    13   ar
     6    13    14   ar
     7    14    15   ar
     8    14     9    1
     9    15    16   ar
    10    16    19    1
    11    19    20    1
    12     9    10    2
    13    10     7    1
    14     7     1    1
    15     1     5   ar
    16     1     2   ar
    17     2     3   ar
    18     3     4   ar
    19     3    21    1
    20     4     5   ar
    21    21    22    1
    22    22    23    1
    23    23    24    1
    24    24    25    2
    25    24    26   am
    26    26    28    1
    27    28    29    1
    28    28    35    1
    29    29    34   ar
    30    29    30   ar
    31    30    31   ar
    32    31    32   ar
    33    32    33   ar
    34    33    34   ar
    35    35    40   ar
    36    35    36   ar
    37    36    37   ar
    38    37    38   ar
    39    38    39   ar
    40    39    40   ar
    41     7     8    1
    42     2     6    1
    43    26    27    1
#	Name:			ZINC21075855
#	Creating user name:	trannguyen
#	Creation time:		Wed Dec  7 14:36:19 2022


#	Modifying user name:	trannguyen
#	Modification time:	Wed Dec  7 14:36:19 2022

@<TRIPOS>MOLECULE
ZINC21075855
 37 39 0 0 0
SMALL
GASTEIGER

@<TRIPOS>ATOM
      1 C          20.7412  -22.5801   13.6987 C.ar    1  UNL1        0.2112
      2 N          21.3166  -23.7984   13.4731 N.ar    1  UNL1       -0.1864
      3 C          22.5569  -23.7929   14.0483 C.ar    1  UNL1        0.2317
      4 N          22.7376  -22.6223   14.6106 N.ar    1  UNL1       -0.2446
      5 N          21.5896  -21.8519   14.3844 N.ar    1  UNL1       -0.1443
      6 H          23.5392  -22.3352   15.1049 H       1  UNL1        0.1919
      7 N          23.4629  -24.8435   14.0431 N.pl3   1  UNL1       -0.2048
      8 H          24.0849  -24.9608   14.7971 H       1  UNL1        0.1775
      9 N          23.4927  -25.7376   12.9649 N.2     1  UNL1       -0.1773
     10 C          24.4836  -25.7102   12.1257 C.2     1  UNL1        0.1206
     11 C          24.5149  -26.6506   10.9917 C.ar    1  UNL1        0.0541
     12 C          25.1321  -26.2852    9.7930 C.ar    1  UNL1        0.0046
     13 C          25.1582  -27.1703    8.7357 C.ar    1  UNL1       -0.0001
     14 C          24.5748  -28.4199    8.8568 C.ar    1  UNL1       -0.0009
     15 C          23.9609  -28.7933   10.0379 C.ar    1  UNL1        0.0159
     16 C          23.9260  -27.9170   11.1098 C.ar    1  UNL1        0.1314
     17 O          23.3229  -28.2831   12.2707 O.3     1  UNL1       -0.5058
     18 H          23.3004  -27.6887   12.9946 H       1  UNL1        0.2922
     19 C          23.3235  -30.1536   10.1571 C.3     1  UNL1        0.0554
     20 C          24.3955  -31.2126   10.1560 C.2     1  UNL1       -0.0213
     21 C          24.1334  -32.4096    9.6924 C.2     1  UNL1       -0.0046
     22 S          19.1406  -22.0755   13.1622 S.3     1  UNL1       -0.0642
     23 C          18.6240  -23.3910   12.0250 C.3     1  UNL1        0.1502
     24 N          16.9568  -23.8432   13.7955 N.am    1  UNL1       -0.2620
     25 C          17.3311  -23.9950   12.5097 C.2     1  UNL1        0.2390
     26 O          16.6275  -24.6177   11.7426 O.2     1  UNL1       -0.2738
     27 H          17.5279  -23.3377   14.4181 H       1  UNL1        0.1568
     28 C          13.6546  -25.7974   15.0810 C.ar    1  UNL1        0.1606
     29 N          13.6137  -24.4803   14.9420 N.ar    1  UNL1       -0.1332
     30 N          14.6143  -23.8197   14.5509 N.ar    1  UNL1       -0.1248
     31 C          15.7620  -24.4013   14.2434 C.ar    1  UNL1        0.1886
     32 S          15.3434  -26.1104   14.5751 S.2     1  UNL1       -0.0241
     33 S          12.4044  -26.9199   15.6118 S.3     1  UNL1       -0.0875
     34 C          11.5014  -27.3224   14.0908 C.3     1  UNL1        0.0539
     35 C          12.4338  -28.0529   13.1224 C.3     1  UNL1        0.0121
     36 C          10.3636  -28.6055   15.9078 C.3     1  UNL1        0.0009
     37 C          10.3102  -28.2214   14.4277 C.3     1  UNL1        0.0112
@<TRIPOS>BOND
     1    36    37    1
     2    37    34    1
     3    34    35    1
     4    34    33    1
     5    33    28    1
     6    28    32   ar
     7    28    29   ar
     8    29    30   ar
     9    30    31   ar
    10    31    32   ar
    11    31    24    1
    12    24    25   am
    13    25    26    2
    14    25    23    1
    15    23    22    1
    16    22     1    1
    17     1     5   ar
    18     1     2   ar
    19     2     3   ar
    20     3     4   ar
    21     3     7    1
    22     4     5   ar
    23     7     9    1
    24     9    10    2
    25    10    11    1
    26    11    16   ar
    27    11    12   ar
    28    12    13   ar
    29    13    14   ar
    30    14    15   ar
    31    15    16   ar
    32    15    19    1
    33    16    17    1
    34    19    20    1
    35    20    21    2
    36    24    27    1
    37     4     6    1
    38     7     8    1
    39    17    18    1
#	Name:			ZINC21079972
#	Creating user name:	trannguyen
#	Creation time:		Wed Dec  7 14:36:20 2022


#	Modifying user name:	trannguyen
#	Modification time:	Wed Dec  7 14:36:20 2022

@<TRIPOS>MOLECULE
ZINC21079972
 40 43 0 0 0
SMALL
GASTEIGER

@<TRIPOS>ATOM
      1 C          15.1055  -24.8676   14.5562 C.ar    1  UNL1        0.2317
      2 N          16.0236  -25.1299   13.5775 N.ar    1  UNL1       -0.1864
      3 C          16.1166  -24.0254   12.7790 C.ar    1  UNL1        0.2107
      4 N          15.2910  -23.1184   13.2438 N.ar    1  UNL1       -0.1443
      5 N          14.6507  -23.6522   14.3698 N.ar    1  UNL1       -0.2446
      6 H          13.9775  -23.1948   14.9237 H       1  UNL1        0.1919
      7 N          14.7188  -25.7370   15.5657 N.pl3   1  UNL1       -0.2048
      8 H          15.1689  -25.7066   16.4408 H       1  UNL1        0.1775
      9 C          12.5163  -26.2426   14.9635 C.2     1  UNL1        0.1207
     10 N          13.6877  -26.6583   15.3401 N.2     1  UNL1       -0.1773
     11 C           9.9575  -28.9416   15.5332 C.ar    1  UNL1        0.1722
     12 C           9.3885  -29.0355   14.2722 C.ar    1  UNL1        0.0400
     13 C           9.8341  -28.2254   13.2425 C.ar    1  UNL1        0.0034
     14 C          10.8489  -27.3172   13.4605 C.ar    1  UNL1        0.0048
     15 C          11.4317  -27.2118   14.7262 C.ar    1  UNL1        0.0574
     16 C          10.9840  -28.0354   15.7664 C.ar    1  UNL1        0.1692
     17 O          11.5482  -27.9451   16.9999 O.3     1  UNL1       -0.5028
     18 H          11.2469  -28.4973   17.6944 H       1  UNL1        0.2923
     19 C          10.1869  -30.9888   16.7219 C.3     1  UNL1        0.2526
     20 O           9.5144  -29.7410   16.5404 O.3     1  UNL1       -0.4684
     21 S          17.1624  -23.8501   11.3718 S.3     1  UNL1       -0.0735
     22 C          18.7798  -23.4286   12.0770 C.3     1  UNL1        0.0748
     23 C          19.4079  -24.6790   12.6956 C.3     1  UNL1        0.0971
     24 C          20.2900  -24.2793   13.8503 C.2     1  UNL1        0.2238
     25 O          21.4292  -24.6904   13.9137 O.2     1  UNL1       -0.2751
     26 N          19.8128  -23.4650   14.8123 N.am    1  UNL1       -0.2986
     27 H          18.8881  -23.1313   14.7609 H       1  UNL1        0.1500
     28 C          20.6704  -23.0765   15.9348 C.3     1  UNL1        0.1169
     29 C          20.6760  -21.5752   16.0665 C.ar    1  UNL1       -0.0003
     30 C          21.4099  -20.8065   15.1825 C.ar    1  UNL1       -0.0024
     31 C          21.4111  -19.4292   15.3003 C.ar    1  UNL1       -0.0003
     32 C          20.6864  -18.8211   16.3083 C.ar    1  UNL1       -0.0000
     33 C          19.9570  -19.5901   17.1957 C.ar    1  UNL1       -0.0003
     34 C          19.9516  -20.9672   17.0747 C.ar    1  UNL1       -0.0024
     35 C          20.1430  -23.6904   17.2060 C.ar    1  UNL1       -0.0003
     36 C          18.7819  -23.8577   17.3797 C.ar    1  UNL1       -0.0024
     37 C          18.2984  -24.4253   18.5438 C.ar    1  UNL1       -0.0003
     38 C          19.1753  -24.8163   19.5382 C.ar    1  UNL1       -0.0000
     39 C          20.5361  -24.6437   19.3668 C.ar    1  UNL1       -0.0003
     40 C          21.0200  -24.0810   18.2006 C.ar    1  UNL1       -0.0024
@<TRIPOS>BOND
     1    19    20    1
     2    20    11    1
     3    11    16   ar
     4    11    12   ar
     5    12    13   ar
     6    13    14   ar
     7    14    15   ar
     8    15    16   ar
     9    15     9    1
    10    16    17    1
    11     9    10    2
    12    10     7    1
    13     7     1    1
    14     1     5   ar
    15     1     2   ar
    16     2     3   ar
    17     3     4   ar
    18     3    21    1
    19     4     5   ar
    20    21    22    1
    21    22    23    1
    22    23    24    1
    23    24    25    2
    24    24    26   am
    25    26    28    1
    26    28    29    1
    27    28    35    1
    28    29    34   ar
    29    29    30   ar
    30    30    31   ar
    31    31    32   ar
    32    32    33   ar
    33    33    34   ar
    34    35    40   ar
    35    35    36   ar
    36    36    37   ar
    37    37    38   ar
    38    38    39   ar
    39    39    40   ar
    40    17    18    1
    41     7     8    1
    42     5     6    1
    43    26    27    1
#	Name:			ZINC21080349
#	Creating user name:	trannguyen
#	Creation time:		Wed Dec  7 14:36:19 2022


#	Modifying user name:	trannguyen
#	Modification time:	Wed Dec  7 14:36:19 2022

@<TRIPOS>MOLECULE
ZINC21080349
 35 37 0 0 0
SMALL
GASTEIGER

@<TRIPOS>ATOM
      1 C          21.2069  -20.5369   13.1199 C.ar    1  UNL1        0.2112
      2 N          20.0362  -21.0914   12.6862 N.ar    1  UNL1       -0.1864
      3 C          20.2631  -22.4166   12.4372 C.ar    1  UNL1        0.2317
      4 N          21.5212  -22.6697   12.7058 N.ar    1  UNL1       -0.2446
      5 N          22.1205  -21.4778   13.1337 N.ar    1  UNL1       -0.1443
      6 H          21.9665  -23.5436   12.6216 H       1  UNL1        0.1919
      7 N          19.3264  -23.3326   11.9812 N.pl3   1  UNL1       -0.2048
      8 H          19.1393  -23.4070   11.0175 H       1  UNL1        0.1775
      9 N          18.6467  -24.1518   12.8920 N.2     1  UNL1       -0.1773
     10 C          17.6203  -23.6900   13.5404 C.2     1  UNL1        0.1206
     11 C          16.9054  -24.5516   14.4984 C.ar    1  UNL1        0.0552
     12 C          15.5171  -24.6854   14.4221 C.ar    1  UNL1        0.0160
     13 C          14.8537  -25.4944   15.3222 C.ar    1  UNL1        0.0579
     14 C          15.5596  -26.1743   16.3014 C.ar    1  UNL1        0.0145
     15 C          16.9337  -26.0493   16.3864 C.ar    1  UNL1        0.0375
     16 C          17.6151  -25.2457   15.4876 C.ar    1  UNL1        0.1352
     17 O          18.9661  -25.1268   15.5677 O.3     1  UNL1       -0.5055
     18 CL         13.1283  -25.6602   15.2276 Cl      1  UNL1       -0.0822
     19 H          19.4254  -24.5827   14.9586 H       1  UNL1        0.2922
     20 S          21.4488  -18.8516   13.5738 S.3     1  UNL1       -0.0642
     21 C          20.6771  -18.7228   15.2104 C.3     1  UNL1        0.1502
     22 N          20.2602  -21.0702   15.8692 N.am    1  UNL1       -0.2620
     23 C          21.0011  -19.9541   16.0167 C.2     1  UNL1        0.2390
     24 O          21.9286  -19.9406   16.7982 O.2     1  UNL1       -0.2738
     25 H          19.5074  -21.0812   15.2348 H       1  UNL1        0.1568
     26 C          20.9143  -24.2359   18.3038 C.ar    1  UNL1        0.1607
     27 N          21.4897  -24.2078   17.1106 N.ar    1  UNL1       -0.1331
     28 N          21.3208  -23.2469   16.3113 N.ar    1  UNL1       -0.1248
     29 C          20.5595  -22.2083   16.6143 C.ar    1  UNL1        0.1886
     30 S          20.0244  -22.6828   18.2558 S.2     1  UNL1       -0.0241
     31 S          20.9994  -25.4538   19.5743 S.3     1  UNL1       -0.0840
     32 C          19.9677  -26.8099   18.9521 C.3     1  UNL1        0.0962
     33 C          20.7658  -27.6353   17.9408 C.3     1  UNL1        0.1543
     34 C          19.5955  -28.7517   16.1719 C.3     1  UNL1        0.1741
     35 O          20.1569  -27.5286   16.6525 O.3     1  UNL1       -0.3502
@<TRIPOS>BOND
     1    34    35    1
     2    35    33    1
     3    33    32    1
     4    32    31    1
     5    31    26    1
     6    26    30   ar
     7    26    27   ar
     8    27    28   ar
     9    28    29   ar
    10    29    30   ar
    11    29    22    1
    12    22    23   am
    13    23    24    2
    14    23    21    1
    15    21    20    1
    16    20     1    1
    17     1     5   ar
    18     1     2   ar
    19     2     3   ar
    20     3     4   ar
    21     3     7    1
    22     4     5   ar
    23     7     9    1
    24     9    10    2
    25    10    11    1
    26    11    16   ar
    27    11    12   ar
    28    12    13   ar
    29    13    14   ar
    30    13    18    1
    31    14    15   ar
    32    15    16   ar
    33    16    17    1
    34    22    25    1
    35     4     6    1
    36     7     8    1
    37    17    19    1
#	Name:			ZINC21080705
#	Creating user name:	trannguyen
#	Creation time:		Wed Dec  7 14:36:20 2022


#	Modifying user name:	trannguyen
#	Modification time:	Wed Dec  7 14:36:20 2022

@<TRIPOS>MOLECULE
ZINC21080705
 40 43 0 0 0
SMALL
GASTEIGER

@<TRIPOS>ATOM
      1 C          16.7228  -25.1236   15.2061 C.ar    1  UNL1        0.2112
      2 N          15.5026  -25.0572   15.8166 N.ar    1  UNL1       -0.1864
      3 C          14.6461  -24.3984   14.9789 C.ar    1  UNL1        0.2317
      4 N          15.3096  -24.0718   13.8963 N.ar    1  UNL1       -0.2446
      5 N          16.6254  -24.5310   14.0399 N.ar    1  UNL1       -0.1443
      6 H          14.9469  -23.5886   13.1190 H       1  UNL1        0.1919
      7 N          13.3095  -24.1243   15.2301 N.pl3   1  UNL1       -0.2048
      8 H          13.0475  -23.2511   15.6017 H       1  UNL1        0.1775
      9 N          12.3326  -25.0900   14.9548 N.2     1  UNL1       -0.1773
     10 C          12.6474  -26.3501   14.9536 C.2     1  UNL1        0.1206
     11 C          11.6199  -27.3660   14.6641 C.ar    1  UNL1        0.0547
     12 C          11.4476  -27.8392   13.3612 C.ar    1  UNL1        0.0046
     13 C          10.4841  -28.7899   13.0970 C.ar    1  UNL1        0.0003
     14 C           9.6867  -29.2779   14.1180 C.ar    1  UNL1        0.0031
     15 C           9.8475  -28.8176   15.4115 C.ar    1  UNL1        0.0370
     16 C          10.8138  -27.8670   15.6955 C.ar    1  UNL1        0.1405
     17 O          10.9765  -27.4185   16.9673 O.3     1  UNL1       -0.4706
     18 C          11.3250  -28.3881   17.9575 C.3     1  UNL1        0.2320
     19 C          12.4353  -27.8474   18.8211 C.ar    1  UNL1        0.0212
     20 C          13.7101  -27.7124   18.3039 C.ar    1  UNL1       -0.0007
     21 C          14.7274  -27.2115   19.0945 C.ar    1  UNL1       -0.0002
     22 C          14.4723  -26.8557   20.4058 C.ar    1  UNL1       -0.0000
     23 C          13.1987  -26.9961   20.9247 C.ar    1  UNL1       -0.0002
     24 C          12.1802  -27.4917   20.1324 C.ar    1  UNL1       -0.0007
     25 S          18.1730  -25.8734   15.8687 S.3     1  UNL1       -0.0642
     26 C          19.4708  -25.4505   14.6739 C.3     1  UNL1        0.1502
     27 N          19.5301  -22.9893   14.9146 N.am    1  UNL1       -0.2830
     28 C          20.1478  -24.1729   15.0990 C.2     1  UNL1        0.2376
     29 O          21.2484  -24.2099   15.6070 O.2     1  UNL1       -0.2738
     30 H          18.6665  -22.9529   14.4432 H       1  UNL1        0.1549
     31 C          20.7948  -20.9618   14.5122 C.ar    1  UNL1        0.0891
     32 C          21.3757  -19.7893   15.0030 C.ar    1  UNL1        0.0077
     33 C          21.2764  -19.4818   16.3423 C.ar    1  UNL1        0.0003
     34 C          20.6023  -20.3294   17.2071 C.ar    1  UNL1        0.0013
     35 C          20.0189  -21.4882   16.7363 C.ar    1  UNL1        0.0149
     36 C          20.1134  -21.8179   15.3908 C.ar    1  UNL1        0.0566
     37 C          20.8967  -21.2968   13.0806 C.2     1  UNL1        0.3425
     38 O          19.8895  -21.4180   12.4118 O.2     1  UNL1       -0.2448
     39 C          22.9020  -22.5891   12.9829 C.3     1  UNL1        0.2560
     40 O          22.1070  -21.4686   12.5133 O.3     1  UNL1       -0.4413
@<TRIPOS>BOND
     1    39    40    1
     2    40    37    1
     3    37    38    2
     4    37    31    1
     5    31    36   ar
     6    31    32   ar
     7    32    33   ar
     8    33    34   ar
     9    34    35   ar
    10    35    36   ar
    11    36    27    1
    12    27    28   am
    13    28    29    2
    14    28    26    1
    15    26    25    1
    16    25     1    1
    17     1     5   ar
    18     1     2   ar
    19     2     3   ar
    20     3     4   ar
    21     3     7    1
    22     4     5   ar
    23     7     9    1
    24     9    10    2
    25    10    11    1
    26    11    16   ar
    27    11    12   ar
    28    12    13   ar
    29    13    14   ar
    30    14    15   ar
    31    15    16   ar
    32    16    17    1
    33    17    18    1
    34    18    19    1
    35    19    24   ar
    36    19    20   ar
    37    20    21   ar
    38    21    22   ar
    39    22    23   ar
    40    23    24   ar
    41    27    30    1
    42     4     6    1
    43     7     8    1
#	Name:			ZINC21080913
#	Creating user name:	trannguyen
#	Creation time:		Wed Dec  7 14:36:19 2022


#	Modifying user name:	trannguyen
#	Modification time:	Wed Dec  7 14:36:19 2022

@<TRIPOS>MOLECULE
ZINC21080913
 36 39 0 0 0
SMALL
GASTEIGER

@<TRIPOS>ATOM
      1 C          21.1135  -20.1289   12.9692 C.2     1  UNL1        0.2390
      2 O          21.9414  -20.7960   12.3854 O.2     1  UNL1       -0.2738
      3 N          19.9934  -20.7091   13.4439 N.am    1  UNL1       -0.2620
      4 H          19.3215  -20.1677   13.9178 H       1  UNL1        0.1568
      5 C          19.7864  -22.0746   13.2638 C.ar    1  UNL1        0.1886
      6 N          19.3309  -22.7340   12.2113 N.ar    1  UNL1       -0.1248
      7 N          19.2026  -23.9886   12.2126 N.ar    1  UNL1       -0.1332
      8 C          19.5165  -24.7239   13.2693 C.ar    1  UNL1        0.1606
      9 S          20.0684  -23.4393   14.3880 S.2     1  UNL1       -0.0241
     10 S          19.4248  -26.4678   13.5038 S.3     1  UNL1       -0.0866
     11 C          21.1292  -26.9478   13.8978 C.3     1  UNL1        0.0646
     12 C          22.0358  -26.6345   12.7060 C.3     1  UNL1        0.0167
     13 C          22.0981  -27.8502   11.7791 C.3     1  UNL1        0.0273
     14 C          23.3619  -27.7935   10.9602 C.ar    1  UNL1       -0.0222
     15 C          23.4416  -28.4812    9.7637 C.ar    1  UNL1       -0.0043
     16 C          24.5992  -28.4252    9.0102 C.ar    1  UNL1       -0.0003
     17 C          25.6806  -27.6898    9.4582 C.ar    1  UNL1       -0.0000
     18 C          25.6029  -27.0069   10.6575 C.ar    1  UNL1       -0.0003
     19 C          24.4435  -27.0586   11.4084 C.ar    1  UNL1       -0.0043
     20 C          21.3375  -18.6514   13.1640 C.3     1  UNL1        0.1501
     21 S          22.2570  -18.3770   14.7034 S.3     1  UNL1       -0.0673
     22 C          20.7992  -20.9655   17.2689 C.ar    1  UNL1        0.0505
     23 N          21.7276  -20.5739   16.3446 N.ar    1  UNL1       -0.2294
     24 C          21.3809  -19.3301   15.8988 C.ar    1  UNL1        0.1708
     25 N          20.2846  -18.9674   16.5209 N.ar    1  UNL1       -0.3423
     26 N          19.9163  -20.0036   17.3888 N.ar    1  UNL1       -0.5461
     27 N          20.7929  -22.1686   17.9590 N.pl3   1  UNL1       -0.2394
     28 H          21.6416  -22.5717   18.2531 H       1  UNL1        0.1741
     29 C          19.5773  -23.9853   18.7965 C.2     1  UNL1        0.1548
     30 N          19.5790  -22.8101   18.2374 N.2     1  UNL1       -0.1768
     31 C          15.6939  -27.1308   18.4506 C.3     1  UNL1        0.0725
     32 C          16.6008  -26.0325   18.9428 C.ar    1  UNL1        0.1234
     33 C          16.3741  -25.2491   20.0164 C.ar    1  UNL1        0.0361
     34 C          17.4655  -24.3664   20.1224 C.ar    1  UNL1        0.0419
     35 C          18.3069  -24.6566   19.0879 C.ar    1  UNL1        0.1655
     36 O          17.7685  -25.6725   18.3842 O.2     1  UNL1       -0.4561
@<TRIPOS>UNITY_ATOM_ATTR
26 1
charge -1
@<TRIPOS>BOND
     1    31    32    1
     2    32    36   ar
     3    32    33   ar
     4    33    34   ar
     5    34    35   ar
     6    35    36   ar
     7    35    29    1
     8    29    30    2
     9    30    27    1
    10    27    22    1
    11    22    26   ar
    12    22    23   ar
    13    23    24   ar
    14    24    25   ar
    15    24    21    1
    16    25    26   ar
    17    21    20    1
    18    20     1    1
    19     1     2    2
    20     1     3   am
    21     3     5    1
    22     5     9   ar
    23     5     6   ar
    24     6     7   ar
    25     7     8   ar
    26     8     9   ar
    27     8    10    1
    28    10    11    1
    29    11    12    1
    30    12    13    1
    31    13    14    1
    32    14    19   ar
    33    14    15   ar
    34    15    16   ar
    35    16    17   ar
    36    17    18   ar
    37    18    19   ar
    38    27    28    1
    39     3     4    1
#	Name:			ZINC21081607
#	Creating user name:	trannguyen
#	Creation time:		Wed Dec  7 14:36:20 2022


#	Modifying user name:	trannguyen
#	Modification time:	Wed Dec  7 14:36:20 2022

@<TRIPOS>MOLECULE
ZINC21081607
 34 36 0 0 0
SMALL
GASTEIGER

@<TRIPOS>ATOM
      1 C          20.4716  -25.9554   16.4638 C.ar    1  UNL1        0.2112
      2 N          20.1267  -25.0299   15.5202 N.ar    1  UNL1       -0.1864
      3 C          20.9778  -25.1704   14.4595 C.ar    1  UNL1        0.2317
      4 N          21.8103  -26.1453   14.7344 N.ar    1  UNL1       -0.2446
      5 N          21.4929  -26.6396   16.0063 N.ar    1  UNL1       -0.1443
      6 H          22.5316  -26.4725   14.1497 H       1  UNL1        0.1919
      7 N          20.9599  -24.4176   13.2943 N.pl3   1  UNL1       -0.2052
      8 H          20.8335  -24.8604   12.4241 H       1  UNL1        0.1774
      9 N          21.1216  -23.0274   13.3558 N.2     1  UNL1       -0.1834
     10 C          20.1162  -22.2449   13.1039 C.2     1  UNL1        0.0762
     11 C          18.8432  -22.8120   12.6228 C.ar    1  UNL1        0.0150
     12 C          18.7388  -23.2929   11.3152 C.ar    1  UNL1        0.0012
     13 C          17.5461  -23.8266   10.8735 C.ar    1  UNL1        0.0000
     14 C          16.4518  -23.8771   11.7188 C.ar    1  UNL1        0.0000
     15 C          16.5463  -23.3980   13.0135 C.ar    1  UNL1        0.0000
     16 C          17.7339  -22.8660   13.4705 C.ar    1  UNL1        0.0012
     17 C          20.2508  -20.7572   13.3033 C.3     1  UNL1        0.0474
     18 C          21.5230  -20.2630   12.6118 C.3     1  UNL1        0.0067
     19 S          19.6829  -26.1891   18.0221 S.3     1  UNL1       -0.0642
     20 C          18.5722  -24.7626   18.1701 C.3     1  UNL1        0.1502
     21 N          16.8705  -25.2382   16.4390 N.am    1  UNL1       -0.2620
     22 C          17.1818  -25.1626   17.7482 C.2     1  UNL1        0.2390
     23 O          16.3431  -25.4166   18.5867 O.2     1  UNL1       -0.2738
     24 H          17.5512  -25.0321   15.7584 H       1  UNL1        0.1568
     25 C          13.1858  -26.6255   15.5039 C.ar    1  UNL1        0.1606
     26 N          13.5747  -25.4515   15.0283 N.ar    1  UNL1       -0.1332
     27 N          14.7094  -24.9681   15.2921 N.ar    1  UNL1       -0.1248
     28 C          15.5856  -25.6079   16.0492 C.ar    1  UNL1        0.1886
     29 S          14.6449  -27.0815   16.4362 S.2     1  UNL1       -0.0241
     30 S          11.6668  -27.4906   15.2823 S.3     1  UNL1       -0.0875
     31 C          11.5390  -27.6996   13.4850 C.3     1  UNL1        0.0539
     32 C          10.0859  -27.9952   13.1080 C.3     1  UNL1        0.0121
     33 C          11.5775  -30.1274   12.8960 C.3     1  UNL1        0.0009
     34 C          12.4277  -28.8638   13.0423 C.3     1  UNL1        0.0112
@<TRIPOS>BOND
     1    33    34    1
     2    34    31    1
     3    31    32    1
     4    31    30    1
     5    30    25    1
     6    25    29   ar
     7    25    26   ar
     8    26    27   ar
     9    27    28   ar
    10    28    29   ar
    11    28    21    1
    12    21    22   am
    13    22    23    2
    14    22    20    1
    15    20    19    1
    16    19     1    1
    17     1     5   ar
    18     1     2   ar
    19     2     3   ar
    20     3     4   ar
    21     3     7    1
    22     4     5   ar
    23     7     9    1
    24     9    10    2
    25    10    17    1
    26    10    11    1
    27    17    18    1
    28    11    16   ar
    29    11    12   ar
    30    12    13   ar
    31    13    14   ar
    32    14    15   ar
    33    15    16   ar
    34    21    24    1
    35     4     6    1
    36     7     8    1
#	Name:			ZINC21082182
#	Creating user name:	trannguyen
#	Creation time:		Wed Dec  7 14:36:19 2022


#	Modifying user name:	trannguyen
#	Modification time:	Wed Dec  7 14:36:19 2022

@<TRIPOS>MOLECULE
ZINC21082182
 38 41 0 0 0
SMALL
GASTEIGER

@<TRIPOS>ATOM
      1 C          12.7139  -27.2740   14.1895 C.ar    1  UNL1        0.2112
      2 N          14.0456  -27.5197   14.3684 N.ar    1  UNL1       -0.1864
      3 C          14.6269  -26.3755   14.8400 C.ar    1  UNL1        0.2317
      4 N          13.6932  -25.4614   14.9479 N.ar    1  UNL1       -0.2446
      5 N          12.4820  -26.0287   14.5305 N.ar    1  UNL1       -0.1443
      6 H          13.8206  -24.5386   15.2662 H       1  UNL1        0.1919
      7 N          15.9692  -26.2105   15.1494 N.pl3   1  UNL1       -0.2052
      8 H          16.4518  -26.9151   15.6392 H       1  UNL1        0.1774
      9 N          16.6382  -25.0410   14.7648 N.2     1  UNL1       -0.1834
     10 C          17.9299  -24.9646   14.8782 C.2     1  UNL1        0.0766
     11 C          18.7090  -26.1336   15.4232 C.3     1  UNL1        0.0537
     12 C          18.6335  -23.7346   14.4737 C.ar    1  UNL1        0.0151
     13 C          18.4340  -23.2074   13.1837 C.ar    1  UNL1        0.0012
     14 C          19.0706  -22.0761   12.7887 C.ar    1  UNL1        0.0000
     15 C          19.9434  -21.4137   13.6718 C.ar    1  UNL1        0.0000
     16 C          20.6127  -20.2409   13.2846 C.ar    1  UNL1        0.0000
     17 C          21.4508  -19.6214   14.1607 C.ar    1  UNL1        0.0000
     18 C          21.6573  -20.1328   15.4406 C.ar    1  UNL1        0.0000
     19 C          21.0263  -21.2663   15.8517 C.ar    1  UNL1        0.0000
     20 C          20.1532  -21.9342   14.9742 C.ar    1  UNL1        0.0000
     21 C          19.4827  -23.1015   15.3683 C.ar    1  UNL1        0.0012
     22 S          11.5188  -28.4254   13.5976 S.3     1  UNL1       -0.0642
     23 C          10.2083  -28.3810   14.8511 C.3     1  UNL1        0.1502
     24 N          10.9715  -27.2619   16.9208 N.am    1  UNL1       -0.2831
     25 C          10.8265  -28.4072   16.2252 C.2     1  UNL1        0.2376
     26 O          11.1935  -29.4588   16.7052 O.2     1  UNL1       -0.2738
     27 H          10.6042  -26.4204   16.5655 H       1  UNL1        0.1549
     28 C          13.6887  -27.4017   19.3989 C.ar    1  UNL1        0.1398
     29 C          12.9698  -27.2819   20.5802 C.ar    1  UNL1        0.0370
     30 C          11.5949  -27.1510   20.5440 C.ar    1  UNL1        0.0044
     31 C          10.9306  -27.1441   19.3325 C.ar    1  UNL1        0.0149
     32 C          11.6442  -27.2688   18.1476 C.ar    1  UNL1        0.0534
     33 C          13.0255  -27.4009   18.1820 C.ar    1  UNL1        0.0515
     34 O          15.0417  -27.5244   19.4357 O.3     1  UNL1       -0.4754
     35 C          15.7927  -26.3423   19.7196 C.3     1  UNL1        0.2054
     36 C          16.8287  -26.1189   18.6162 C.3     1  UNL1        0.0473
     37 C          17.8316  -24.1834   19.8371 C.3     1  UNL1        0.0001
     38 C          17.1706  -24.6300   18.5315 C.3     1  UNL1        0.0038
@<TRIPOS>BOND
     1    37    38    1
     2    38    36    1
     3    36    35    1
     4    35    34    1
     5    34    28    1
     6    28    33   ar
     7    28    29   ar
     8    29    30   ar
     9    30    31   ar
    10    31    32   ar
    11    32    33   ar
    12    32    24    1
    13    24    25   am
    14    25    26    2
    15    25    23    1
    16    23    22    1
    17    22     1    1
    18     1     5   ar
    19     1     2   ar
    20     2     3   ar
    21     3     4   ar
    22     3     7    1
    23     4     5   ar
    24     7     9    1
    25     9    10    2
    26    10    11    1
    27    10    12    1
    28    12    21   ar
    29    12    13   ar
    30    13    14   ar
    31    14    15   ar
    32    15    20   ar
    33    15    16   ar
    34    16    17   ar
    35    17    18   ar
    36    18    19   ar
    37    19    20   ar
    38    20    21   ar
    39    24    27    1
    40     4     6    1
    41     7     8    1
#	Name:			ZINC21082198
#	Creating user name:	trannguyen
#	Creation time:		Wed Dec  7 14:36:19 2022


#	Modifying user name:	trannguyen
#	Modification time:	Wed Dec  7 14:36:19 2022

@<TRIPOS>MOLECULE
ZINC21082198
 37 40 0 0 0
SMALL
GASTEIGER

@<TRIPOS>ATOM
      1 C          11.3764  -27.0740   13.8954 C.ar    1  UNL1        0.2112
      2 N          12.6857  -27.4518   13.9881 N.ar    1  UNL1       -0.1864
      3 C          13.3558  -26.4859   14.6863 C.ar    1  UNL1        0.2317
      4 N          12.4980  -25.5462   15.0029 N.ar    1  UNL1       -0.2446
      5 N          11.2430  -25.9203   14.5052 N.ar    1  UNL1       -0.1443
      6 H          12.7003  -24.7224   15.5026 H       1  UNL1        0.1919
      7 N          14.7070  -26.4964   15.0011 N.pl3   1  UNL1       -0.2052
      8 H          15.0989  -27.2727   15.4626 H       1  UNL1        0.1774
      9 N          15.5137  -25.4023   14.6620 N.2     1  UNL1       -0.1834
     10 C          16.8069  -25.5248   14.6604 C.2     1  UNL1        0.0766
     11 C          17.4394  -26.8436   15.0231 C.3     1  UNL1        0.0537
     12 C          17.6555  -24.3740   14.3038 C.ar    1  UNL1        0.0151
     13 C          17.3935  -23.6513   13.1243 C.ar    1  UNL1        0.0012
     14 C          18.1603  -22.5877   12.7755 C.ar    1  UNL1        0.0000
     15 C          19.2337  -22.1938   13.5959 C.ar    1  UNL1        0.0000
     16 C          20.0406  -21.0956   13.2550 C.ar    1  UNL1        0.0000
     17 C          21.0721  -20.7374   14.0684 C.ar    1  UNL1        0.0000
     18 C          21.3424  -21.4442   15.2387 C.ar    1  UNL1        0.0000
     19 C          20.5829  -22.5134   15.6019 C.ar    1  UNL1        0.0000
     20 C          19.5087  -22.9134   14.7865 C.ar    1  UNL1        0.0000
     21 C          18.7025  -24.0070   15.1351 C.ar    1  UNL1        0.0012
     22 S          10.0920  -27.9776   13.0963 S.3     1  UNL1       -0.0642
     23 C           9.8945  -29.4602   14.1226 C.3     1  UNL1        0.1502
     24 N          10.8949  -28.8749   16.3079 N.am    1  UNL1       -0.2620
     25 C           9.7817  -29.0576   15.5705 C.2     1  UNL1        0.2390
     26 O           8.6889  -28.8980   16.0723 O.2     1  UNL1       -0.2738
     27 H          11.7819  -29.0045   15.9006 H       1  UNL1        0.1568
     28 C          10.6207  -28.1558   20.2808 C.ar    1  UNL1        0.1606
     29 N          10.5716  -27.1376   19.4342 N.ar    1  UNL1       -0.1332
     30 N          10.6581  -27.3027   18.1868 N.ar    1  UNL1       -0.1248
     31 C          10.7907  -28.5028   17.6459 C.ar    1  UNL1        0.1886
     32 S          10.8057  -29.5111   19.1254 S.2     1  UNL1       -0.0241
     33 S          10.5298  -28.1715   22.0403 S.3     1  UNL1       -0.0875
     34 C           8.7534  -28.2930   22.3869 C.3     1  UNL1        0.0539
     35 C           8.4520  -27.6442   23.7394 C.3     1  UNL1        0.0121
     36 C           7.5486  -30.1060   21.1605 C.3     1  UNL1        0.0009
     37 C           8.3407  -29.7659   22.4245 C.3     1  UNL1        0.0112
@<TRIPOS>BOND
     1    36    37    1
     2    37    34    1
     3    34    35    1
     4    34    33    1
     5    33    28    1
     6    28    32   ar
     7    28    29   ar
     8    29    30   ar
     9    30    31   ar
    10    31    32   ar
    11    31    24    1
    12    24    25   am
    13    25    26    2
    14    25    23    1
    15    23    22    1
    16    22     1    1
    17     1     5   ar
    18     1     2   ar
    19     2     3   ar
    20     3     4   ar
    21     3     7    1
    22     4     5   ar
    23     7     9    1
    24     9    10    2
    25    10    11    1
    26    10    12    1
    27    12    21   ar
    28    12    13   ar
    29    13    14   ar
    30    14    15   ar
    31    15    20   ar
    32    15    16   ar
    33    16    17   ar
    34    17    18   ar
    35    18    19   ar
    36    19    20   ar
    37    20    21   ar
    38    24    27    1
    39     4     6    1
    40     7     8    1
#	Name:			ZINC21082202
#	Creating user name:	trannguyen
#	Creation time:		Wed Dec  7 14:36:20 2022


#	Modifying user name:	trannguyen
#	Modification time:	Wed Dec  7 14:36:20 2022

@<TRIPOS>MOLECULE
ZINC21082202
 37 40 0 0 0
SMALL
GASTEIGER

@<TRIPOS>ATOM
      1 C          21.2388  -20.5759   13.0275 C.ar    1  UNL1        0.2112
      2 N          20.0314  -21.1347   12.7184 N.ar    1  UNL1       -0.1864
      3 C          20.2224  -22.4752   12.5282 C.ar    1  UNL1        0.2317
      4 N          21.4963  -22.7317   12.7029 N.ar    1  UNL1       -0.2446
      5 N          22.1399  -21.5291   13.0229 N.ar    1  UNL1       -0.1443
      6 H          21.9252  -23.6142   12.6232 H       1  UNL1        0.1919
      7 N          19.2412  -23.4007   12.2035 N.pl3   1  UNL1       -0.2052
      8 H          18.9770  -23.5290   11.2638 H       1  UNL1        0.1774
      9 N          18.6262  -24.1528   13.2130 N.2     1  UNL1       -0.1834
     10 C          17.3335  -24.1353   13.3398 C.2     1  UNL1        0.0766
     11 C          16.4954  -23.3060   12.4012 C.3     1  UNL1        0.0537
     12 C          16.6866  -24.9263   14.4015 C.ar    1  UNL1        0.0151
     13 C          17.4561  -25.4221   15.4711 C.ar    1  UNL1        0.0012
     14 C          16.8828  -26.1520   16.4607 C.ar    1  UNL1        0.0000
     15 C          15.5023  -26.4230   16.4270 C.ar    1  UNL1        0.0000
     16 C          14.8871  -27.1761   17.4408 C.ar    1  UNL1        0.0000
     17 C          13.5493  -27.4220   17.3818 C.ar    1  UNL1        0.0000
     18 C          12.7759  -26.9373   16.3286 C.ar    1  UNL1        0.0000
     19 C          13.3362  -26.2042   15.3284 C.ar    1  UNL1        0.0000
     20 C          14.7157  -25.9299   15.3550 C.ar    1  UNL1        0.0000
     21 C          15.3234  -25.1721   14.3431 C.ar    1  UNL1        0.0012
     22 S          21.5342  -18.8732   13.3713 S.3     1  UNL1       -0.0642
     23 C          20.7802  -18.6175   15.0013 C.3     1  UNL1        0.1502
     24 N          20.0338  -20.7420   16.0250 N.am    1  UNL1       -0.2620
     25 C          21.0155  -19.8334   15.8600 C.2     1  UNL1        0.2390
     26 O          22.0883  -19.9944   16.4026 O.2     1  UNL1       -0.2738
     27 H          19.1630  -20.6113   15.5846 H       1  UNL1        0.1568
     28 C          20.7343  -24.1949   18.0157 C.ar    1  UNL1        0.1606
     29 N          20.4176  -23.1060   18.7010 N.ar    1  UNL1       -0.1332
     30 N          20.1947  -22.0021   18.1332 N.ar    1  UNL1       -0.1248
     31 C          20.2512  -21.8657   16.8185 C.ar    1  UNL1        0.1886
     32 S          20.6945  -23.5364   16.3511 S.2     1  UNL1       -0.0241
     33 S          21.0922  -25.8250   18.5807 S.3     1  UNL1       -0.0875
     34 C          19.4607  -26.5358   18.9321 C.3     1  UNL1        0.0539
     35 C          19.5766  -28.0587   19.0230 C.3     1  UNL1        0.0121
     36 C          17.4952  -25.5096   20.0839 C.3     1  UNL1        0.0009
     37 C          18.9392  -25.9837   20.2603 C.3     1  UNL1        0.0112
@<TRIPOS>BOND
     1    36    37    1
     2    37    34    1
     3    34    35    1
     4    34    33    1
     5    33    28    1
     6    28    32   ar
     7    28    29   ar
     8    29    30   ar
     9    30    31   ar
    10    31    32   ar
    11    31    24    1
    12    24    25   am
    13    25    26    2
    14    25    23    1
    15    23    22    1
    16    22     1    1
    17     1     5   ar
    18     1     2   ar
    19     2     3   ar
    20     3     4   ar
    21     3     7    1
    22     4     5   ar
    23     7     9    1
    24     9    10    2
    25    10    11    1
    26    10    12    1
    27    12    21   ar
    28    12    13   ar
    29    13    14   ar
    30    14    15   ar
    31    15    20   ar
    32    15    16   ar
    33    16    17   ar
    34    17    18   ar
    35    18    19   ar
    36    19    20   ar
    37    20    21   ar
    38    24    27    1
    39     4     6    1
    40     7     8    1
#	Name:			ZINC21152163
#	Creating user name:	trannguyen
#	Creation time:		Wed Dec  7 14:36:19 2022


#	Modifying user name:	trannguyen
#	Modification time:	Wed Dec  7 14:36:19 2022

@<TRIPOS>MOLECULE
ZINC21152163
 37 40 0 0 0
SMALL
GASTEIGER

@<TRIPOS>ATOM
      1 C          19.1675  -25.7975   16.1105 C.ar    1  UNL1        0.0758
      2 C          18.5911  -26.6724   15.1846 C.ar    1  UNL1        0.0078
      3 C          17.2219  -26.7936   15.1147 C.ar    1  UNL1        0.0151
      4 C          16.4112  -26.0468   15.9645 C.ar    1  UNL1        0.0322
      5 C          16.9815  -25.1706   16.8834 C.ar    1  UNL1        0.0151
      6 C          18.3501  -25.0485   16.9624 C.ar    1  UNL1        0.0078
      7 N          15.0259  -26.1721   15.8913 N.ar    1  UNL1       -0.4817
      8 C          14.1474  -25.4962   14.9265 C.2     1  UNL1       -0.3366
      9 C          12.7513  -25.9714   15.2684 C.ar    1  UNL1        0.0299
     10 O          11.7146  -25.6618   14.7142 O.2     1  UNL1       -0.3265
     11 C          12.9020  -26.8435   16.3614 C.ar    1  UNL1        0.0543
     12 C          14.2483  -26.9426   16.7011 C.ar    1  UNL1        0.0791
     13 N          14.7284  -27.7145   17.7178 N.pl3   1  UNL1       -0.3457
     14 H          15.6949  -27.7381   17.9039 H       1  UNL1        0.1436
     15 H          14.1085  -28.2482   18.2657 H       1  UNL1        0.1436
     16 C          11.8027  -27.5499   17.0399 C.ar    1  UNL1        0.1135
     17 N          11.4040  -27.4502   18.2921 N.ar    1  UNL1       -0.2382
     18 C          10.3710  -28.1666   18.7810 C.ar    1  UNL1        0.0879
     19 C           9.8451  -28.1552   20.0946 C.ar    1  UNL1        0.0196
     20 C           8.7788  -28.9483   20.4286 C.ar    1  UNL1        0.0016
     21 C           8.1856  -29.7940   19.5022 C.ar    1  UNL1        0.0006
     22 C           8.6736  -29.8309   18.2088 C.ar    1  UNL1        0.0080
     23 C           9.7380  -29.0364   17.8630 C.ar    1  UNL1        0.0485
     24 S          10.6690  -28.7612   16.3750 S.2     1  UNL1       -0.0664
     25 C          20.6339  -25.6655   16.1887 C.2     1  UNL1        0.3417
     26 O          21.1680  -25.4463   17.2579 O.2     1  UNL1       -0.2449
     27 O          21.3819  -25.7879   15.0745 O.3     1  UNL1       -0.4353
     28 C          21.2849  -24.7206   14.0949 C.3     1  UNL1        0.2929
     29 N          20.8707  -22.4039   14.8564 N.am    1  UNL1       -0.2727
     30 C          21.7390  -23.4252   14.7167 C.2     1  UNL1        0.2705
     31 O          22.8858  -23.3015   15.0913 O.2     1  UNL1       -0.2708
     32 C          19.3059  -21.8351   13.0650 C.3     1  UNL1        0.0233
     33 C          19.4853  -22.5532   14.4039 C.3     1  UNL1        0.0939
     34 C          21.3121  -21.1446   15.4608 C.3     1  UNL1        0.1160
     35 C          20.5959  -20.9378   16.7705 C.2     1  UNL1       -0.0242
     36 C          20.5679  -21.8985   17.6606 C.2     1  UNL1       -0.0074
     37 C          19.9118  -19.6258   17.0562 C.3     1  UNL1        0.0281
@<TRIPOS>UNITY_ATOM_ATTR
8 1
charge -1
@<TRIPOS>BOND
     1    32    33    1
     2    33    29    1
     3    29    34    1
     4    29    30   am
     5    34    35    1
     6    35    36    2
     7    35    37    1
     8    30    31    2
     9    30    28    1
    10    28    27    1
    11    27    25    1
    12    25    26    2
    13    25     1    1
    14     1     6   ar
    15     1     2   ar
    16     2     3   ar
    17     3     4   ar
    18     4     5   ar
    19     4     7    1
    20     5     6   ar
    21     7    12   ar
    22     7     8   ar
    23     8     9   ar
    24     9    10    2
    25     9    11   ar
    26    11    12   ar
    27    11    16    1
    28    12    13    1
    29    16    24   ar
    30    16    17   ar
    31    17    18   ar
    32    18    23   ar
    33    18    19   ar
    34    19    20   ar
    35    20    21   ar
    36    21    22   ar
    37    22    23   ar
    38    23    24   ar
    39    13    14    1
    40    13    15    1
#	Name:			ZINC21159191
#	Creating user name:	trannguyen
#	Creation time:		Wed Dec  7 14:36:19 2022


#	Modifying user name:	trannguyen
#	Modification time:	Wed Dec  7 14:36:19 2022

@<TRIPOS>MOLECULE
ZINC21159191
 33 36 0 0 0
SMALL
GASTEIGER

@<TRIPOS>ATOM
      1 C          20.8136  -26.2703   15.2333 C.3     1  UNL1        0.0964
      2 C          19.6178  -26.6766   14.3674 C.3     1  UNL1        0.0126
      3 C          19.7709  -26.0559   12.9761 C.3     1  UNL1        0.0222
      4 C          19.8795  -24.5352   13.1104 C.3     1  UNL1        0.0976
      5 N          21.0385  -24.1980   13.9467 N.pl3   1  UNL1       -0.2416
      6 C          20.8919  -24.7435   15.3022 C.3     1  UNL1        0.1066
      7 C          21.2425  -22.8346   13.9820 C.ar    1  UNL1        0.3535
      8 N          21.5491  -22.1161   15.1019 N.ar    1  UNL1       -0.2226
      9 C          21.6741  -20.7909   14.7182 C.ar    1  UNL1        0.1833
     10 C          21.9693  -19.6176   15.3957 C.ar    1  UNL1        0.0459
     11 C          22.0143  -18.4214   14.7097 C.ar    1  UNL1        0.0039
     12 C          21.7661  -18.3839   13.3456 C.ar    1  UNL1        0.0039
     13 C          21.4718  -19.5393   12.6570 C.ar    1  UNL1        0.0459
     14 C          21.4220  -20.7588   13.3369 C.ar    1  UNL1        0.1833
     15 N          21.1654  -22.0352   12.9474 N.ar    1  UNL1       -0.2226
     16 H          21.6606  -22.4733   16.0125 H       1  UNL1        0.3128
     17 H          20.9539  -22.3161   12.0278 H       1  UNL1        0.3128
     18 N          21.4086  -26.3715   17.6321 N.am    1  UNL1       -0.3040
     19 C          20.6415  -26.8285   16.6225 C.2     1  UNL1        0.2237
     20 O          19.8127  -27.6888   16.8320 O.2     1  UNL1       -0.2751
     21 H          22.0813  -25.6732   17.4621 H       1  UNL1        0.1494
     22 C          21.2413  -26.9142   18.9826 C.3     1  UNL1        0.0942
     23 C          20.9987  -25.7679   19.9665 C.3     1  UNL1        0.0508
     24 C          17.2549  -25.2569   20.0189 C.ar    1  UNL1        0.1386
     25 C          17.1228  -24.0952   19.2725 C.ar    1  UNL1        0.0400
     26 C          18.2435  -23.4753   18.7557 C.ar    1  UNL1        0.0397
     27 C          19.5013  -24.0144   18.9832 C.ar    1  UNL1        0.1349
     28 C          19.6328  -25.1789   19.7246 C.ar    1  UNL1        0.0165
     29 C          18.5122  -25.7959   20.2463 C.ar    1  UNL1        0.0357
     30 C          16.3635  -27.0453   21.3084 C.3     1  UNL1        0.2525
     31 O          16.1513  -25.8672   20.5280 O.3     1  UNL1       -0.4714
     32 O          20.6048  -23.4040   18.4744 O.3     1  UNL1       -0.4717
     33 C          20.5854  -21.9765   18.4109 C.3     1  UNL1        0.2525
@<TRIPOS>UNITY_ATOM_ATTR
15 1
charge 1
@<TRIPOS>BOND
     1    30    31    1
     2    31    24    1
     3    24    29   ar
     4    24    25   ar
     5    25    26   ar
     6    26    27   ar
     7    27    28   ar
     8    27    32    1
     9    28    29   ar
    10    28    23    1
    11    23    22    1
    12    22    18    1
    13    18    19   am
    14    19    20    2
    15    19     1    1
    16     1     6    1
    17     1     2    1
    18     2     3    1
    19     3     4    1
    20     4     5    1
    21     5     6    1
    22     5     7    1
    23     7    15   ar
    24     7     8   ar
    25     8     9   ar
    26     9    14   ar
    27     9    10   ar
    28    10    11   ar
    29    11    12   ar
    30    12    13   ar
    31    13    14   ar
    32    14    15   ar
    33    32    33    1
    34    18    21    1
    35     8    16    1
    36    15    17    1
#	Name:			ZINC21230886
#	Creating user name:	trannguyen
#	Creation time:		Wed Dec  7 14:36:20 2022


#	Modifying user name:	trannguyen
#	Modification time:	Wed Dec  7 14:36:20 2022

@<TRIPOS>MOLECULE
ZINC21230886
 37 38 0 0 0
SMALL
GASTEIGER

@<TRIPOS>ATOM
      1 C          21.0913  -26.9539   19.0773 C.3     1  UNL1        0.0575
      2 C          19.8841  -26.2170   19.6609 C.3     1  UNL1        0.2440
      3 C          19.5341  -25.0475   18.7772 C.2     1  UNL1        0.2628
      4 O          19.5695  -23.9196   19.2216 O.2     1  UNL1       -0.2712
      5 N          19.1820  -25.2551   17.4929 N.am    1  UNL1       -0.3011
      6 H          19.1534  -26.1707   17.1322 H       1  UNL1        0.1495
      7 C          18.8420  -24.1182   16.6338 C.3     1  UNL1        0.0942
      8 C          19.9189  -23.9503   15.5601 C.3     1  UNL1        0.0476
      9 C          20.3843  -22.5172   15.5353 C.ar    1  UNL1       -0.0204
     10 C          20.6429  -21.8951   14.3282 C.ar    1  UNL1       -0.0028
     11 C          21.0656  -20.5793   14.3053 C.ar    1  UNL1        0.0196
     12 C          21.2385  -19.8881   15.4899 C.ar    1  UNL1        0.1217
     13 C          20.9849  -20.5117   16.6973 C.ar    1  UNL1        0.0196
     14 C          20.5581  -21.8263   16.7199 C.ar    1  UNL1       -0.0028
     15 S          21.7815  -18.2121   15.4609 S.O2    1  UNL1        0.0572
     16 O          22.7333  -18.0753   16.5072 O.2     1  UNL1       -0.1532
     17 O          22.0886  -17.9081   14.1072 O.2     1  UNL1       -0.1532
     18 N          20.4842  -17.2698   15.8750 N.3     1  UNL1       -0.2035
     19 H          20.2257  -17.4541   16.8443 H       1  UNL1        0.1442
     20 H          19.6964  -17.4889   15.2654 H       1  UNL1        0.1442
     21 O          18.7525  -27.1239   19.7342 O.3     1  UNL1       -0.4428
     22 C          17.7054  -26.7331   20.4774 C.2     1  UNL1        0.3174
     23 O          17.8148  -26.6475   21.6776 O.2     1  UNL1       -0.2501
     24 C          16.3933  -26.4008   19.8148 C.3     1  UNL1        0.1134
     25 C          16.2242  -27.2591   18.5595 C.3     1  UNL1        0.0590
     26 C          14.9821  -26.8015   17.7923 C.3     1  UNL1        0.2060
     27 O          15.0292  -27.3150   16.4596 O.3     1  UNL1       -0.4754
     28 C          15.5916  -26.5202   15.5116 C.ar    1  UNL1        0.1385
     29 C          16.7663  -26.9104   14.8853 C.ar    1  UNL1        0.0366
     30 C          17.3359  -26.1009   13.9216 C.ar    1  UNL1       -0.0012
     31 C          16.7361  -24.9025   13.5813 C.ar    1  UNL1       -0.0226
     32 C          15.5653  -24.5112   14.2042 C.ar    1  UNL1       -0.0012
     33 C          14.9919  -25.3172   15.1684 C.ar    1  UNL1        0.0366
     34 C          17.3594  -24.0212   12.5297 C.3     1  UNL1        0.0189
     35 C          18.7334  -24.5759   12.1484 C.3     1  UNL1        0.0044
     36 C          16.4606  -23.9902   11.2919 C.3     1  UNL1        0.0044
     37 C          17.5171  -22.6027   13.0810 C.3     1  UNL1        0.0044
@<TRIPOS>BOND
     1     1     2    1
     2     2     3    1
     3     2    21    1
     4     3     4    2
     5     3     5   am
     6     5     7    1
     7     7     8    1
     8     8     9    1
     9     9    14   ar
    10     9    10   ar
    11    10    11   ar
    12    11    12   ar
    13    12    13   ar
    14    12    15    1
    15    13    14   ar
    16    15    16    2
    17    15    17    2
    18    15    18    1
    19    21    22    1
    20    22    23    2
    21    22    24    1
    22    24    25    1
    23    25    26    1
    24    26    27    1
    25    27    28    1
    26    28    33   ar
    27    28    29   ar
    28    29    30   ar
    29    30    31   ar
    30    31    32   ar
    31    31    34    1
    32    32    33   ar
    33    34    35    1
    34    34    36    1
    35    34    37    1
    36     5     6    1
    37    18    19    1
    38    18    20    1
#	Name:			ZINC21320823
#	Creating user name:	trannguyen
#	Creation time:		Wed Dec  7 14:36:20 2022


#	Modifying user name:	trannguyen
#	Modification time:	Wed Dec  7 14:36:20 2022

@<TRIPOS>MOLECULE
ZINC21320823
 40 45 0 0 0
SMALL
GASTEIGER

@<TRIPOS>ATOM
      1 C          20.9923  -23.2377   18.6923 C.ar    1  UNL1        0.2542
      2 N          22.0814  -23.9333   18.4716 N.ar    1  UNL1       -0.1092
      3 N          21.7819  -25.2854   18.6834 N.ar    1  UNL1       -0.1192
      4 C          20.5167  -25.3726   19.0186 C.ar    1  UNL1        0.2107
      5 N          19.9957  -24.1099   19.0329 N.ar    1  UNL1       -0.2106
      6 N          18.7057  -23.7769   19.3342 N.pl3   1  UNL1       -0.2936
      7 H          18.4240  -22.8337   19.3171 H       1  UNL1        0.1628
      8 H          18.0577  -24.4801   19.5683 H       1  UNL1        0.1628
      9 N          20.8705  -21.8595   18.5920 N.pl3   1  UNL1       -0.2033
     10 H          20.4734  -21.3453   19.3317 H       1  UNL1        0.1775
     11 C          20.4506  -20.7403   16.5819 C.2     1  UNL1        0.1206
     12 N          21.3126  -21.1993   17.4379 N.2     1  UNL1       -0.1773
     13 C          20.7695  -20.6493   14.1114 C.ar    1  UNL1        0.1405
     14 C          21.2056  -19.9861   12.9765 C.ar    1  UNL1        0.0370
     15 C          21.7920  -18.7389   13.0845 C.ar    1  UNL1        0.0031
     16 C          21.9432  -18.1414   14.3241 C.ar    1  UNL1        0.0003
     17 C          21.5097  -18.7855   15.4640 C.ar    1  UNL1        0.0046
     18 C          20.9156  -20.0460   15.3681 C.ar    1  UNL1        0.0547
     19 O          20.1979  -21.8771   14.0066 O.3     1  UNL1       -0.4706
     20 C          20.1399  -22.4564   12.7016 C.3     1  UNL1        0.2320
     21 C          16.1862  -23.8916   11.9555 C.ar    1  UNL1       -0.0000
     22 C          17.1710  -24.0497   10.9984 C.ar    1  UNL1       -0.0002
     23 C          18.4504  -23.5850   11.2397 C.ar    1  UNL1       -0.0007
     24 C          18.7450  -22.9626   12.4383 C.ar    1  UNL1        0.0212
     25 C          17.7616  -22.8096   13.3977 C.ar    1  UNL1       -0.0007
     26 C          16.4809  -23.2692   13.1541 C.ar    1  UNL1       -0.0002
     27 S          19.6427  -26.8577   19.3859 S.3     1  UNL1       -0.0662
     28 C          18.5684  -27.1025   17.9449 C.3     1  UNL1        0.1294
     29 C          19.1894  -28.1195   17.0224 C.2     1  UNL1        0.1615
     30 O          19.8386  -29.0306   17.4773 O.2     1  UNL1       -0.2951
     31 C          19.0003  -27.9998   15.5321 C.3     1  UNL1        0.0585
     32 C          20.3163  -28.3263   14.8232 C.3     1  UNL1        0.0069
     33 C          20.1244  -28.2047   13.3101 C.3     1  UNL1        0.0004
     34 C          19.6988  -26.7767   12.9632 C.3     1  UNL1        0.0000
     35 C          20.7811  -25.7966   13.4203 C.3     1  UNL1        0.0000
     36 C          20.9730  -25.9181   14.9334 C.3     1  UNL1        0.0000
     37 C          21.3987  -27.3462   15.2803 C.3     1  UNL1        0.0004
     38 C          19.6570  -25.5917   15.6423 C.3     1  UNL1        0.0004
     39 C          18.5747  -26.5717   15.1851 C.3     1  UNL1        0.0069
     40 C          18.3828  -26.4502   13.6721 C.3     1  UNL1        0.0004
@<TRIPOS>BOND
     1    21    26   ar
     2    21    22   ar
     3    22    23   ar
     4    23    24   ar
     5    24    25   ar
     6    24    20    1
     7    25    26   ar
     8    20    19    1
     9    19    13    1
    10    13    18   ar
    11    13    14   ar
    12    14    15   ar
    13    15    16   ar
    14    16    17   ar
    15    17    18   ar
    16    18    11    1
    17    11    12    2
    18    12     9    1
    19     9     1    1
    20     1     5   ar
    21     1     2   ar
    22     2     3   ar
    23     3     4   ar
    24     4     5   ar
    25     4    27    1
    26     5     6    1
    27    27    28    1
    28    28    29    1
    29    29    30    2
    30    29    31    1
    31    31    39    1
    32    31    32    1
    33    32    37    1
    34    32    33    1
    35    33    34    1
    36    34    40    1
    37    34    35    1
    38    35    36    1
    39    36    37    1
    40    36    38    1
    41    38    39    1
    42    39    40    1
    43     9    10    1
    44     6     7    1
    45     6     8    1
#	Name:			ZINC21320843
#	Creating user name:	trannguyen
#	Creation time:		Wed Dec  7 14:36:19 2022


#	Modifying user name:	trannguyen
#	Modification time:	Wed Dec  7 14:36:19 2022

@<TRIPOS>MOLECULE
ZINC21320843
 38 41 0 0 0
SMALL
GASTEIGER

@<TRIPOS>ATOM
      1 C          16.4227  -24.7570   12.9744 C.ar    1  UNL1        0.2107
      2 N          15.9820  -23.8069   12.1847 N.ar    1  UNL1       -0.1192
      3 N          17.0894  -23.2001   11.5777 N.ar    1  UNL1       -0.1092
      4 C          18.1705  -23.7951   12.0205 C.ar    1  UNL1        0.2542
      5 N          17.7865  -24.7706   12.8982 N.ar    1  UNL1       -0.2106
      6 N          18.6201  -25.6146   13.5756 N.pl3   1  UNL1       -0.2936
      7 H          18.2465  -26.2879   14.1891 H       1  UNL1        0.1628
      8 H          19.5944  -25.5496   13.4503 H       1  UNL1        0.1628
      9 N          19.4751  -23.4885   11.6618 N.pl3   1  UNL1       -0.2033
     10 H          19.8741  -23.8973   10.8600 H       1  UNL1        0.1775
     11 N          20.2246  -22.5971   12.4406 N.2     1  UNL1       -0.1773
     12 C          19.6327  -21.6248   13.0656 C.2     1  UNL1        0.1206
     13 C          20.4211  -20.6872   13.8848 C.ar    1  UNL1        0.0547
     14 C          20.9910  -19.5531   13.3018 C.ar    1  UNL1        0.0046
     15 C          21.7278  -18.6797   14.0741 C.ar    1  UNL1        0.0003
     16 C          21.9047  -18.9219   15.4256 C.ar    1  UNL1        0.0031
     17 C          21.3456  -20.0409   16.0143 C.ar    1  UNL1        0.0370
     18 C          20.5984  -20.9254   15.2546 C.ar    1  UNL1        0.1405
     19 O          20.0437  -22.0220   15.8335 O.3     1  UNL1       -0.4706
     20 C          20.2663  -22.1988   17.2339 C.3     1  UNL1        0.2320
     21 C          20.5155  -23.6567   17.5227 C.ar    1  UNL1        0.0212
     22 C          20.9733  -24.0463   18.7676 C.ar    1  UNL1       -0.0007
     23 C          21.1968  -25.3841   19.0342 C.ar    1  UNL1       -0.0002
     24 C          20.9730  -26.3313   18.0526 C.ar    1  UNL1       -0.0000
     25 C          20.5207  -25.9412   16.8059 C.ar    1  UNL1       -0.0002
     26 C          20.2917  -24.6039   16.5411 C.ar    1  UNL1       -0.0007
     27 S          15.4299  -25.8250   13.9636 S.3     1  UNL1       -0.0658
     28 C          15.5959  -25.1512   15.6395 C.3     1  UNL1        0.1340
     29 C          16.6027  -25.9651   16.4107 C.2     1  UNL1        0.1844
     30 O          17.1108  -26.9414   15.9018 O.2     1  UNL1       -0.2904
     31 C          17.7092  -26.1714   19.9926 C.ar    1  UNL1        0.1388
     32 C          17.6587  -24.8340   20.3640 C.ar    1  UNL1        0.0369
     33 C          17.2666  -23.8710   19.4522 C.ar    1  UNL1        0.0032
     34 C          16.9269  -24.2310   18.1648 C.ar    1  UNL1        0.0031
     35 C          16.9691  -25.5753   17.7818 C.ar    1  UNL1        0.0386
     36 C          17.3665  -26.5467   18.7055 C.ar    1  UNL1        0.0398
     37 C          17.1071  -27.5711   21.8177 C.3     1  UNL1        0.2525
     38 O          18.0961  -27.1121   20.8940 O.3     1  UNL1       -0.4714
@<TRIPOS>BOND
     1    37    38    1
     2    38    31    1
     3    31    36   ar
     4    31    32   ar
     5    32    33   ar
     6    33    34   ar
     7    34    35   ar
     8    35    36   ar
     9    35    29    1
    10    29    30    2
    11    29    28    1
    12    28    27    1
    13    27     1    1
    14     1     5   ar
    15     1     2   ar
    16     2     3   ar
    17     3     4   ar
    18     4     5   ar
    19     4     9    1
    20     5     6    1
    21     9    11    1
    22    11    12    2
    23    12    13    1
    24    13    18   ar
    25    13    14   ar
    26    14    15   ar
    27    15    16   ar
    28    16    17   ar
    29    17    18   ar
    30    18    19    1
    31    19    20    1
    32    20    21    1
    33    21    26   ar
    34    21    22   ar
    35    22    23   ar
    36    23    24   ar
    37    24    25   ar
    38    25    26   ar
    39     6     7    1
    40     6     8    1
    41     9    10    1
#	Name:			ZINC21325573
#	Creating user name:	trannguyen
#	Creation time:		Wed Dec  7 14:36:19 2022


#	Modifying user name:	trannguyen
#	Modification time:	Wed Dec  7 14:36:19 2022

@<TRIPOS>MOLECULE
ZINC21325573
 38 41 0 0 0
SMALL
GASTEIGER

@<TRIPOS>ATOM
      1 C          20.5219  -25.3337   18.5522 C.ar    1  UNL1        0.2107
      2 N          21.8323  -25.2962   18.5994 N.ar    1  UNL1       -0.1192
      3 N          22.2234  -23.9549   18.7033 N.ar    1  UNL1       -0.1092
      4 C          21.1400  -23.2168   18.7161 C.ar    1  UNL1        0.2542
      5 N          20.0600  -24.0502   18.6231 N.ar    1  UNL1       -0.2106
      6 N          18.7490  -23.6668   18.6094 N.pl3   1  UNL1       -0.2936
      7 H          18.0386  -24.3447   18.5389 H       1  UNL1        0.1628
      8 H          18.5145  -22.7126   18.6699 H       1  UNL1        0.1628
      9 N          21.0969  -21.8332   18.8077 N.pl3   1  UNL1       -0.2033
     10 H          20.8326  -21.4038   19.6532 H       1  UNL1        0.1775
     11 N          21.4297  -21.0470   17.6969 N.2     1  UNL1       -0.1773
     12 C          20.5599  -20.8578   16.7513 C.2     1  UNL1        0.1206
     13 C          20.9447  -20.1249   15.5320 C.ar    1  UNL1        0.0547
     14 C          21.5993  -18.8948   15.6291 C.ar    1  UNL1        0.0046
     15 C          21.9618  -18.2169   14.4840 C.ar    1  UNL1        0.0003
     16 C          21.6699  -18.7452   13.2383 C.ar    1  UNL1        0.0031
     17 C          21.0168  -19.9587   13.1290 C.ar    1  UNL1        0.0370
     18 C          20.6507  -20.6555   14.2684 C.ar    1  UNL1        0.1405
     19 O          20.0099  -21.8485   14.1620 O.3     1  UNL1       -0.4706
     20 C          20.4671  -22.7420   13.1449 C.3     1  UNL1        0.2328
     21 C          19.3026  -23.5385   12.6153 C.ar    1  UNL1        0.0317
     22 C          18.1755  -22.8883   12.1486 C.ar    1  UNL1        0.0002
     23 C          17.1091  -23.6185   11.6589 C.ar    1  UNL1       -0.0002
     24 C          17.1649  -24.9999   11.6443 C.ar    1  UNL1        0.0008
     25 C          18.2890  -25.6512   12.1155 C.ar    1  UNL1        0.0112
     26 C          19.3590  -24.9206   12.6015 C.ar    1  UNL1        0.0572
     27 CL         20.7711  -25.7381   13.1941 Cl      1  UNL1       -0.0825
     28 S          19.5315  -26.7851   18.4214 S.3     1  UNL1       -0.0658
     29 C          20.0550  -27.5340   16.8543 C.3     1  UNL1        0.1340
     30 C          18.8407  -27.9691   16.0752 C.2     1  UNL1        0.1843
     31 O          18.7290  -29.1234   15.7211 O.2     1  UNL1       -0.2904
     32 C          14.7381  -24.1557   14.7807 C.3     1  UNL1        0.0310
     33 C          15.8136  -25.1554   15.1199 C.ar    1  UNL1       -0.0218
     34 C          17.0827  -24.7147   15.4528 C.ar    1  UNL1       -0.0042
     35 C          18.0722  -25.6231   15.7644 C.ar    1  UNL1        0.0025
     36 C          17.7903  -26.9928   15.7438 C.ar    1  UNL1        0.0356
     37 C          16.5069  -27.4303   15.4013 C.ar    1  UNL1        0.0025
     38 C          15.5268  -26.5092   15.0974 C.ar    1  UNL1       -0.0042
@<TRIPOS>BOND
     1    32    33    1
     2    33    38   ar
     3    33    34   ar
     4    34    35   ar
     5    35    36   ar
     6    36    37   ar
     7    36    30    1
     8    37    38   ar
     9    30    31    2
    10    30    29    1
    11    29    28    1
    12    28     1    1
    13     1     5   ar
    14     1     2   ar
    15     2     3   ar
    16     3     4   ar
    17     4     5   ar
    18     4     9    1
    19     5     6    1
    20     9    11    1
    21    11    12    2
    22    12    13    1
    23    13    18   ar
    24    13    14   ar
    25    14    15   ar
    26    15    16   ar
    27    16    17   ar
    28    17    18   ar
    29    18    19    1
    30    19    20    1
    31    20    21    1
    32    21    26   ar
    33    21    22   ar
    34    22    23   ar
    35    23    24   ar
    36    24    25   ar
    37    25    26   ar
    38    26    27    1
    39     6     7    1
    40     6     8    1
    41     9    10    1
#	Name:			ZINC21353348
#	Creating user name:	trannguyen
#	Creation time:		Wed Dec  7 14:36:20 2022


#	Modifying user name:	trannguyen
#	Modification time:	Wed Dec  7 14:36:20 2022

@<TRIPOS>MOLECULE
ZINC21353348
 33 35 0 0 0
SMALL
GASTEIGER

@<TRIPOS>ATOM
      1 C          20.3998  -23.3372   14.1325 C.3     1  UNL1        0.0359
      2 C          14.3577  -25.2660   14.8445 C.ar    1  UNL1        0.1655
      3 N          14.8288  -24.3780   14.0005 N.ar    1  UNL1       -0.2239
      4 C          16.1383  -24.0527   13.9447 C.ar    1  UNL1        0.0892
      5 C          16.7709  -23.1203   13.0899 C.ar    1  UNL1        0.0193
      6 C          18.1225  -22.9074   13.1641 C.ar    1  UNL1       -0.0027
      7 C          18.9156  -23.5922   14.0736 C.ar    1  UNL1       -0.0211
      8 C          18.3314  -24.5153   14.9212 C.ar    1  UNL1        0.0038
      9 C          16.9774  -24.7317   14.8574 C.ar    1  UNL1        0.0494
     10 S          15.8294  -25.7781   15.7198 S.2     1  UNL1       -0.0514
     11 C          12.6175  -26.7990   14.3707 C.2     1  UNL1        0.2270
     12 O          13.3696  -27.4133   13.6442 O.2     1  UNL1       -0.2747
     13 N          13.0520  -25.6971   15.0136 N.am    1  UNL1       -0.2641
     14 H          12.4415  -25.1985   15.6034 H       1  UNL1        0.1567
     15 C          10.7680  -28.0856   13.3348 C.3     1  UNL1        0.0096
     16 C          11.1972  -27.2680   14.5547 C.3     1  UNL1        0.0769
     17 C          11.1060  -28.1384   15.8097 C.3     1  UNL1        0.0096
     18 C          20.6516  -21.8769   14.5131 C.3     1  UNL1        0.0897
     19 C          20.5510  -21.7231   16.0087 C.2     1  UNL1        0.2230
     20 O          20.2168  -20.6603   16.4881 O.2     1  UNL1       -0.2751
     21 N          20.8326  -22.7666   16.8139 N.am    1  UNL1       -0.3004
     22 H          21.1040  -23.6293   16.4249 H       1  UNL1        0.1497
     23 C          20.7349  -22.6171   18.2680 C.3     1  UNL1        0.1163
     24 C          19.7139  -23.5867   18.8052 C.ar    1  UNL1       -0.0024
     25 C          18.3752  -23.4162   18.5047 C.ar    1  UNL1        0.0005
     26 C          17.4373  -24.3039   18.9955 C.ar    1  UNL1        0.0366
     27 C          17.8398  -25.3672   19.7905 C.ar    1  UNL1        0.1384
     28 C          19.1837  -25.5363   20.0903 C.ar    1  UNL1        0.0366
     29 C          20.1177  -24.6456   19.5974 C.ar    1  UNL1        0.0005
     30 O          16.9191  -26.2415   20.2750 O.3     1  UNL1       -0.4792
     31 C          15.9407  -26.7295   19.3549 C.3     1  UNL1        0.1661
     32 C          16.4061  -28.0677   18.7776 C.3     1  UNL1        0.0472
     33 C          14.6086  -26.9232   20.0820 C.3     1  UNL1        0.0472
@<TRIPOS>BOND
     1    15    16    1
     2    16    17    1
     3    16    11    1
     4    11    12    2
     5    11    13   am
     6    13     2    1
     7     2    10   ar
     8     2     3   ar
     9     3     4   ar
    10     4     9   ar
    11     4     5   ar
    12     5     6   ar
    13     6     7   ar
    14     7     8   ar
    15     7     1    1
    16     8     9   ar
    17     9    10   ar
    18     1    18    1
    19    18    19    1
    20    19    20    2
    21    19    21   am
    22    21    23    1
    23    23    24    1
    24    24    29   ar
    25    24    25   ar
    26    25    26   ar
    27    26    27   ar
    28    27    28   ar
    29    27    30    1
    30    28    29   ar
    31    30    31    1
    32    31    32    1
    33    31    33    1
    34    13    14    1
    35    21    22    1
#	Name:			ZINC21457061
#	Creating user name:	trannguyen
#	Creation time:		Wed Dec  7 14:36:20 2022


#	Modifying user name:	trannguyen
#	Modification time:	Wed Dec  7 14:36:20 2022

@<TRIPOS>MOLECULE
ZINC21457061
 41 45 0 0 0
SMALL
GASTEIGER

@<TRIPOS>ATOM
      1 C          19.2776  -23.4034   16.8958 C.ar    1  UNL1        0.1019
      2 C          20.1247  -22.5221   16.2173 C.ar    1  UNL1        0.0588
      3 C          20.7782  -21.7650   17.1461 C.ar    1  UNL1        0.2231
      4 N          20.3575  -22.1586   18.3661 N.ar    1  UNL1       -0.2457
      5 N          19.4171  -23.1854   18.1897 N.ar    1  UNL1       -0.1705
      6 O          21.6770  -20.8066   16.8088 O.3     1  UNL1       -0.4234
      7 C          21.7207  -20.4177   15.5183 C.2     1  UNL1        0.2008
      8 C          21.1245  -21.0909   14.5093 C.2     1  UNL1        0.1028
      9 C          20.3459  -22.3630   14.7353 C.3     1  UNL1        0.0871
     10 N          22.4105  -19.2711   15.2117 N.pl3   1  UNL1       -0.3284
     11 H          20.6573  -21.7903   19.2285 H       1  UNL1        0.1920
     12 H          22.8554  -18.7587   15.9249 H       1  UNL1        0.1451
     13 H          22.4602  -18.9612   14.2786 H       1  UNL1        0.1451
     14 C          16.7054  -26.2856   15.1063 C.ar    1  UNL1        0.1722
     15 C          17.6518  -26.6840   16.0381 C.ar    1  UNL1        0.0401
     16 C          18.4867  -25.7514   16.6195 C.ar    1  UNL1        0.0049
     17 C          18.3800  -24.4066   16.2709 C.ar    1  UNL1        0.0224
     18 C          17.4256  -24.0042   15.3390 C.ar    1  UNL1        0.0416
     19 C          16.5941  -24.9430   14.7546 C.ar    1  UNL1        0.1724
     20 O          15.6648  -24.5538   13.8411 O.3     1  UNL1       -0.4684
     21 C          16.1439  -23.8851   12.6728 C.3     1  UNL1        0.2526
     22 O          15.8846  -27.2073   14.5357 O.3     1  UNL1       -0.4724
     23 C          14.8179  -27.7129   15.3409 C.3     1  UNL1        0.2056
     24 C          13.2139  -27.8104   13.4277 C.3     1  UNL1        0.0040
     25 C          13.4827  -27.1949   14.8025 C.3     1  UNL1        0.0473
     26 C          21.1275  -23.5389   14.2087 C.ar    1  UNL1       -0.0101
     27 C          22.5049  -23.5599   14.3263 C.ar    1  UNL1       -0.0003
     28 C          23.2259  -24.6390   13.8499 C.ar    1  UNL1        0.0397
     29 C          22.5691  -25.6974   13.2429 C.ar    1  UNL1        0.1720
     30 C          21.1833  -25.6737   13.1196 C.ar    1  UNL1        0.1721
     31 C          20.4661  -24.5916   13.6042 C.ar    1  UNL1        0.0364
     32 O          20.5341  -26.7103   12.5250 O.3     1  UNL1       -0.4684
     33 C          19.9054  -27.6617   13.3862 C.3     1  UNL1        0.2526
     34 O          23.2774  -26.7574   12.7692 O.3     1  UNL1       -0.4761
     35 C          24.1310  -26.5185   11.6484 C.3     1  UNL1        0.1660
     36 C          23.8039  -27.5114   10.5140 C.3     1  UNL1        0.0435
     37 C          25.1839  -27.8458    9.8933 C.3     1  UNL1        0.0038
     38 C          26.1122  -27.9011   11.1319 C.3     1  UNL1        0.0038
     39 C          25.5981  -26.7657   12.0409 C.3     1  UNL1        0.0435
     40 C          21.2360  -20.5778   13.1771 C.1     1  UNL1        0.1011
     41 N          21.3245  -20.1709   12.1202 N.1     1  UNL1       -0.1910
@<TRIPOS>BOND
     1    24    25    1
     2    25    23    1
     3    23    22    1
     4    22    14    1
     5    14    19   ar
     6    14    15   ar
     7    15    16   ar
     8    16    17   ar
     9    17    18   ar
    10    17     1    1
    11    18    19   ar
    12    19    20    1
    13    20    21    1
    14     1     5   ar
    15     1     2   ar
    16     2     9    1
    17     2     3   ar
    18     3     4   ar
    19     3     6    1
    20     4     5   ar
    21     6     7    1
    22     7     8    2
    23     7    10    1
    24     8     9    1
    25     8    40    1
    26     9    26    1
    27    26    31   ar
    28    26    27   ar
    29    27    28   ar
    30    28    29   ar
    31    29    30   ar
    32    29    34    1
    33    30    31   ar
    34    30    32    1
    35    32    33    1
    36    34    35    1
    37    35    39    1
    38    35    36    1
    39    36    37    1
    40    37    38    1
    41    38    39    1
    42    40    41    3
    43     4    11    1
    44    10    12    1
    45    10    13    1
#	Name:			ZINC21646031
#	Creating user name:	trannguyen
#	Creation time:		Wed Dec  7 14:36:19 2022


#	Modifying user name:	trannguyen
#	Modification time:	Wed Dec  7 14:36:19 2022

@<TRIPOS>MOLECULE
ZINC21646031
 29 31 0 0 0
SMALL
GASTEIGER

@<TRIPOS>ATOM
      1 C          19.5147  -25.1098   13.0576 C.3     1  UNL1        0.1312
      2 C          18.1417  -25.5114   12.5147 C.3     1  UNL1        0.0218
      3 C          19.3526  -23.9947   14.0583 C.2     1  UNL1        0.2362
      4 O          18.2442  -23.5987   14.3507 O.2     1  UNL1       -0.2739
      5 N          20.4395  -23.4377   14.6285 N.am    1  UNL1       -0.2835
      6 H          21.3404  -23.6953   14.3264 H       1  UNL1        0.1549
      7 C          20.2873  -22.4934   15.6497 C.ar    1  UNL1        0.0462
      8 C          19.8209  -22.8868   16.8974 C.ar    1  UNL1        0.0143
      9 C          19.6713  -21.9524   17.9031 C.ar    1  UNL1        0.0013
     10 C          19.9858  -20.6260   17.6691 C.ar    1  UNL1       -0.0002
     11 C          20.4554  -20.2321   16.4297 C.ar    1  UNL1       -0.0031
     12 C          20.6018  -21.1610   15.4178 C.ar    1  UNL1       -0.0093
     13 C          21.1081  -20.7298   14.0655 C.3     1  UNL1        0.0201
     14 C          21.5948  -19.2813   14.1413 C.3     1  UNL1        0.0044
     15 C          19.9773  -20.8349   13.0403 C.3     1  UNL1        0.0044
     16 C          22.2662  -21.6354   13.6421 C.3     1  UNL1        0.0044
     17 S          20.2858  -26.5357   13.8626 S.3     1  UNL1       -0.0672
     18 N          22.5366  -27.0832   12.2932 N.ar    1  UNL1       -0.2880
     19 C          23.8195  -26.5917   12.1921 C.ar    1  UNL1        0.2016
     20 N          23.9358  -25.6338   13.0856 N.ar    1  UNL1       -0.1250
     21 N          22.8292  -25.4924   13.7234 N.ar    1  UNL1       -0.1220
     22 C          21.9407  -26.3554   13.2848 C.ar    1  UNL1        0.1937
     23 C          24.8619  -27.0514   11.2613 C.ar    1  UNL1        0.1812
     24 C          25.0784  -26.5743   10.0033 C.ar    1  UNL1        0.0439
     25 C          26.1701  -27.2933    9.4796 C.ar    1  UNL1        0.0439
     26 C          26.5576  -28.1702   10.4269 C.ar    1  UNL1        0.1798
     27 O          25.7657  -28.0218   11.5018 O.2     1  UNL1       -0.4473
     28 C          22.1065  -29.4903   12.2407 C.3     1  UNL1        0.0266
     29 C          21.9362  -28.1608   11.5028 C.3     1  UNL1        0.1096
@<TRIPOS>BOND
     1    28    29    1
     2    29    18    1
     3    18    22   ar
     4    18    19   ar
     5    19    20   ar
     6    19    23    1
     7    20    21   ar
     8    21    22   ar
     9    22    17    1
    10    17     1    1
    11     1     2    1
    12     1     3    1
    13     3     4    2
    14     3     5   am
    15     5     7    1
    16     7    12   ar
    17     7     8   ar
    18     8     9   ar
    19     9    10   ar
    20    10    11   ar
    21    11    12   ar
    22    12    13    1
    23    13    14    1
    24    13    15    1
    25    13    16    1
    26    23    27   ar
    27    23    24   ar
    28    24    25   ar
    29    25    26   ar
    30    26    27   ar
    31     5     6    1
#	Name:			ZINC21849737
#	Creating user name:	trannguyen
#	Creation time:		Wed Dec  7 14:36:20 2022


#	Modifying user name:	trannguyen
#	Modification time:	Wed Dec  7 14:36:20 2022

@<TRIPOS>MOLECULE
ZINC21849737
 33 35 0 0 0
SMALL
GASTEIGER

@<TRIPOS>ATOM
      1 N          17.4408  -24.8611   15.7483 N.am    1  UNL1       -0.2832
      2 C          17.8929  -24.5686   16.9838 C.2     1  UNL1        0.2376
      3 O          17.1979  -24.7918   17.9525 O.2     1  UNL1       -0.2738
      4 H          17.9755  -24.6180   14.9582 H       1  UNL1        0.1549
      5 C          13.7777  -26.7956   15.2720 C.ar    1  UNL1        0.0504
      6 C          14.9136  -27.5283   15.5905 C.ar    1  UNL1        0.0159
      7 C          16.1262  -26.8879   15.7482 C.ar    1  UNL1        0.0159
      8 C          16.2102  -25.5109   15.5884 C.ar    1  UNL1        0.0504
      9 C          15.0732  -24.7775   15.2755 C.ar    1  UNL1        0.0159
     10 C          13.8617  -25.4187   15.1122 C.ar    1  UNL1        0.0159
     11 C          12.2315  -28.0080   13.9281 C.2     1  UNL1        0.2252
     12 O          12.9747  -27.8797   12.9782 O.2     1  UNL1       -0.2748
     13 N          12.5473  -27.4456   15.1116 N.am    1  UNL1       -0.2839
     14 H          11.9131  -27.4915   15.8632 H       1  UNL1        0.1549
     15 C          10.3503  -29.0428   15.1687 C.3     1  UNL1        0.0091
     16 C          10.9551  -28.7963   13.7851 C.3     1  UNL1        0.0692
     17 C           9.9625  -28.0085   12.9278 C.3     1  UNL1        0.0091
     18 C          11.2564  -30.1377   13.1139 C.3     1  UNL1        0.0091
     19 C          19.2620  -23.9644   17.1618 C.3     1  UNL1        0.1501
     20 S          20.2729  -24.3204   15.7031 S.3     1  UNL1       -0.0675
     21 C          20.6902  -22.6804   15.2125 C.ar    1  UNL1        0.1718
     22 N          21.2140  -21.7700   15.9963 N.ar    1  UNL1       -0.2211
     23 C          21.4130  -20.6235   15.2948 C.ar    1  UNL1        0.0992
     24 C          21.9310  -19.3702   15.6311 C.ar    1  UNL1        0.0206
     25 C          22.0062  -18.3823   14.6750 C.ar    1  UNL1        0.0016
     26 C          21.5714  -18.6217   13.3798 C.ar    1  UNL1        0.0016
     27 C          21.0574  -19.8538   13.0317 C.ar    1  UNL1        0.0188
     28 C          20.9742  -20.8604   13.9817 C.ar    1  UNL1        0.0793
     29 N          20.5216  -22.1696   13.9565 N.ar    1  UNL1       -0.3039
     30 C          19.9664  -22.8750   12.7988 C.3     1  UNL1        0.1400
     31 C          18.4790  -22.5432   12.6644 C.3     1  UNL1        0.1667
     32 O          17.7037  -23.7130   12.9334 O.3     1  UNL1       -0.3490
     33 C          16.6232  -23.9167   12.0207 C.3     1  UNL1        0.1742
@<TRIPOS>BOND
     1    15    16    1
     2    16    17    1
     3    16    18    1
     4    16    11    1
     5    11    12    2
     6    11    13   am
     7    13     5    1
     8     5    10   ar
     9     5     6   ar
    10     6     7   ar
    11     7     8   ar
    12     8     9   ar
    13     8     1    1
    14     9    10   ar
    15     1     2   am
    16     2     3    2
    17     2    19    1
    18    19    20    1
    19    20    21    1
    20    21    29   ar
    21    21    22   ar
    22    22    23   ar
    23    23    28   ar
    24    23    24   ar
    25    24    25   ar
    26    25    26   ar
    27    26    27   ar
    28    27    28   ar
    29    28    29   ar
    30    29    30    1
    31    30    31    1
    32    31    32    1
    33    32    33    1
    34    13    14    1
    35     1     4    1
#	Name:			ZINC21860587
#	Creating user name:	trannguyen
#	Creation time:		Wed Dec  7 14:36:19 2022


#	Modifying user name:	trannguyen
#	Modification time:	Wed Dec  7 14:36:19 2022

@<TRIPOS>MOLECULE
ZINC21860587
 35 38 0 0 0
SMALL
GASTEIGER

@<TRIPOS>ATOM
      1 C          19.9426  -22.9442   14.9269 C.3     1  UNL1        0.2518
      2 C          20.1816  -21.5627   15.4795 C.ar    1  UNL1        0.0249
      3 C          20.7188  -20.5783   14.6713 C.ar    1  UNL1       -0.0004
      4 C          20.9339  -19.3099   15.1770 C.ar    1  UNL1       -0.0002
      5 C          20.6208  -19.0284   16.4936 C.ar    1  UNL1       -0.0000
      6 C          20.0881  -20.0142   17.3033 C.ar    1  UNL1       -0.0002
      7 C          19.8689  -21.2813   16.7964 C.ar    1  UNL1       -0.0004
      8 C          21.0124  -23.8786   15.4305 C.2     1  UNL1        0.2186
      9 O          22.1806  -23.5550   15.3657 O.2     1  UNL1       -0.2871
     10 C          20.6545  -25.1352   15.9796 C.ar    1  UNL1        0.0570
     11 C          20.3728  -26.2923   15.2851 C.ar    1  UNL1        0.0754
     12 N          20.0774  -27.2796   16.1520 N.ar    1  UNL1       -0.3519
     13 C          20.1402  -26.8221   17.4527 C.ar    1  UNL1        0.0567
     14 C          20.5020  -25.4665   17.4100 C.ar    1  UNL1        0.0199
     15 C          20.6414  -24.7426   18.5901 C.ar    1  UNL1        0.0016
     16 C          20.4228  -25.3633   19.8013 C.ar    1  UNL1        0.0001
     17 C          20.0648  -26.7023   19.8461 C.ar    1  UNL1        0.0015
     18 C          19.9234  -27.4307   18.6846 C.ar    1  UNL1        0.0170
     19 H          19.8482  -28.2014   15.8934 H       1  UNL1        0.1660
     20 O          19.9833  -22.8988   13.4762 O.3     1  UNL1       -0.4396
     21 C          18.9213  -23.3934   12.8211 C.2     1  UNL1        0.3193
     22 O          19.0560  -24.3346   12.0755 O.2     1  UNL1       -0.2500
     23 C          17.5609  -22.7748   13.0155 C.3     1  UNL1        0.1307
     24 C          16.5191  -23.8805   13.1974 C.3     1  UNL1        0.1011
     25 C          16.1572  -25.2550   15.1765 C.2     1  UNL1        0.2269
     26 O          15.0173  -24.8432   15.2181 O.2     1  UNL1       -0.2747
     27 N          16.9905  -24.8348   14.2041 N.am    1  UNL1       -0.3035
     28 H          17.9159  -25.1691   14.1703 H       1  UNL1        0.1495
     29 C          16.6420  -26.2367   16.2120 C.3     1  UNL1        0.1113
     30 C          16.8768  -24.2989   20.0116 C.ar    1  UNL1       -0.0000
     31 C          16.4508  -25.6115   19.9302 C.ar    1  UNL1       -0.0003
     32 C          16.3745  -26.2384   18.7007 C.ar    1  UNL1       -0.0038
     33 C          16.7247  -25.5530   17.5524 C.ar    1  UNL1       -0.0131
     34 C          17.1562  -24.2423   17.6343 C.ar    1  UNL1       -0.0038
     35 C          17.2274  -23.6135   18.8634 C.ar    1  UNL1       -0.0003
@<TRIPOS>BOND
     1    30    35   ar
     2    30    31   ar
     3    31    32   ar
     4    32    33   ar
     5    33    34   ar
     6    33    29    1
     7    34    35   ar
     8    29    25    1
     9    25    26    2
    10    25    27   am
    11    27    24    1
    12    24    23    1
    13    23    21    1
    14    21    22    2
    15    21    20    1
    16    20     1    1
    17     1     2    1
    18     1     8    1
    19     2     7   ar
    20     2     3   ar
    21     3     4   ar
    22     4     5   ar
    23     5     6   ar
    24     6     7   ar
    25     8     9    2
    26     8    10    1
    27    10    14   ar
    28    10    11   ar
    29    11    12   ar
    30    12    13   ar
    31    13    18   ar
    32    13    14   ar
    33    14    15   ar
    34    15    16   ar
    35    16    17   ar
    36    17    18   ar
    37    27    28    1
    38    12    19    1
#	Name:			ZINC21861440
#	Creating user name:	trannguyen
#	Creation time:		Wed Dec  7 14:36:20 2022


#	Modifying user name:	trannguyen
#	Modification time:	Wed Dec  7 14:36:20 2022

@<TRIPOS>MOLECULE
ZINC21861440
 39 41 0 0 0
SMALL
GASTEIGER

@<TRIPOS>ATOM
      1 O          21.1080  -22.1011   16.9510 O.3     1  UNL1       -0.4352
      2 C          20.5181  -20.9779   16.4962 C.2     1  UNL1        0.3444
      3 O          19.7155  -20.3883   17.1927 O.2     1  UNL1       -0.2448
      4 C          20.8581  -21.3252   14.0426 C.ar    1  UNL1        0.1384
      5 C          20.8460  -20.4650   15.1550 C.ar    1  UNL1        0.1072
      6 C          21.1510  -19.1121   14.9639 C.ar    1  UNL1        0.0109
      7 C          21.4517  -18.6805   13.6844 C.ar    1  UNL1        0.0210
      8 C          21.4375  -19.5862   12.6384 C.ar    1  UNL1        0.1003
      9 N          21.1528  -20.8579   12.8391 N.ar    1  UNL1       -0.2289
     10 N          20.5602  -22.6658   14.2061 N.pl3   1  UNL1       -0.2978
     11 H          21.2777  -23.3080   14.4115 H       1  UNL1        0.1536
     12 C          16.6248  -23.9883   13.8285 C.ar    1  UNL1        0.1386
     13 C          17.0917  -22.9620   13.0204 C.ar    1  UNL1        0.0382
     14 C          18.3951  -22.5232   13.1450 C.ar    1  UNL1        0.0178
     15 C          19.2386  -23.1096   14.0796 C.ar    1  UNL1        0.0496
     16 C          18.7718  -24.1405   14.8845 C.ar    1  UNL1        0.0178
     17 C          17.4666  -24.5750   14.7619 C.ar    1  UNL1        0.0382
     18 O          15.3411  -24.4198   13.7052 O.3     1  UNL1       -0.4755
     19 C          13.9945  -26.0754   14.8392 C.3     1  UNL1        0.0512
     20 C          14.6266  -24.6841   14.9142 C.3     1  UNL1        0.2055
     21 C          20.3961  -22.8541   17.9680 C.3     1  UNL1        0.2930
     22 C          21.1085  -24.1583   18.2182 C.2     1  UNL1        0.2708
     23 O          22.2822  -24.1591   18.5240 O.2     1  UNL1       -0.2707
     24 N          20.4415  -25.3236   18.1022 N.am    1  UNL1       -0.2807
     25 H          19.5101  -25.3280   17.7834 H       1  UNL1        0.1550
     26 C          21.0699  -26.5217   18.4335 C.ar    1  UNL1        0.0548
     27 C          21.4906  -26.7519   19.7365 C.ar    1  UNL1        0.0148
     28 C          22.1079  -27.9423   20.0639 C.ar    1  UNL1        0.0013
     29 C          22.3230  -28.9101   19.0958 C.ar    1  UNL1        0.0002
     30 C          21.9174  -28.6966   17.7963 C.ar    1  UNL1        0.0058
     31 C          21.2861  -27.4994   17.4511 C.ar    1  UNL1        0.0668
     32 C          20.8499  -27.2642   16.0616 C.2     1  UNL1        0.2471
     33 O          19.6677  -27.3053   15.7803 O.2     1  UNL1       -0.2701
     34 N          21.7618  -27.0037   15.1040 N.am    1  UNL1       -0.2984
     35 H          22.7190  -26.9703   15.3318 H       1  UNL1        0.1498
     36 C          21.3286  -26.7703   13.7241 C.3     1  UNL1        0.1219
     37 C          22.1603  -25.6409   13.1126 C.3     1  UNL1        0.1634
     38 O          22.7306  -24.8500   14.1572 O.3     1  UNL1       -0.3493
     39 C          23.7666  -23.9686   13.7194 C.3     1  UNL1        0.1742
@<TRIPOS>BOND
     1    19    20    1
     2    20    18    1
     3    18    12    1
     4    12    17   ar
     5    12    13   ar
     6    13    14   ar
     7    14    15   ar
     8    15    16   ar
     9    15    10    1
    10    16    17   ar
    11    10     4    1
    12     4     9   ar
    13     4     5   ar
    14     5     6   ar
    15     5     2    1
    16     6     7   ar
    17     7     8   ar
    18     8     9   ar
    19     2     3    2
    20     2     1    1
    21     1    21    1
    22    21    22    1
    23    22    23    2
    24    22    24   am
    25    24    26    1
    26    26    31   ar
    27    26    27   ar
    28    27    28   ar
    29    28    29   ar
    30    29    30   ar
    31    30    31   ar
    32    31    32    1
    33    32    33    2
    34    32    34   am
    35    34    36    1
    36    36    37    1
    37    37    38    1
    38    38    39    1
    39    10    11    1
    40    24    25    1
    41    34    35    1
#	Name:			ZINC21907088
#	Creating user name:	trannguyen
#	Creation time:		Wed Dec  7 14:36:20 2022


#	Modifying user name:	trannguyen
#	Modification time:	Wed Dec  7 14:36:20 2022

@<TRIPOS>MOLECULE
ZINC21907088
 29 30 0 0 0
SMALL
GASTEIGER

@<TRIPOS>ATOM
      1 O          17.3030  -25.3815   13.2467 O.3     1  UNL1       -0.4425
      2 C          18.4959  -25.7077   13.7687 C.2     1  UNL1        0.3219
      3 O          18.5557  -26.2491   14.8473 O.2     1  UNL1       -0.2497
      4 C          19.7605  -25.3986   13.0097 C.3     1  UNL1        0.1391
      5 C          21.0821  -20.2950   14.1298 C.ar    1  UNL1       -0.0192
      6 C          20.1343  -20.7143   13.2073 C.ar    1  UNL1       -0.0041
      7 C          19.8942  -22.0471   13.0185 C.ar    1  UNL1        0.0025
      8 C          20.6074  -22.9893   13.7582 C.ar    1  UNL1        0.0341
      9 C          21.5729  -22.5713   14.6893 C.ar    1  UNL1        0.1448
     10 C          21.7970  -21.2121   14.8701 C.ar    1  UNL1        0.0332
     11 O          22.1015  -23.6807   15.2435 O.2     1  UNL1       -0.4508
     12 C          21.5428  -24.7883   14.7252 C.ar    1  UNL1        0.1758
     13 C          20.6141  -24.4559   13.8182 C.ar    1  UNL1        0.0295
     14 C          21.8219  -18.2101   13.0095 C.3     1  UNL1        0.0050
     15 C          21.3329  -18.8218   14.3239 C.3     1  UNL1        0.0265
     16 C          16.5513  -24.3385   13.9214 C.3     1  UNL1        0.2445
     17 C          16.4355  -23.1190   13.0045 C.3     1  UNL1        0.0575
     18 C          15.1730  -24.8485   14.2553 C.2     1  UNL1        0.2696
     19 O          14.3488  -24.0991   14.7334 O.2     1  UNL1       -0.2708
     20 N          14.8568  -26.1378   14.0224 N.am    1  UNL1       -0.2367
     21 C          13.6242  -26.5939   14.3210 C.2     1  UNL1        0.3066
     22 O          12.7979  -25.8426   14.8003 O.2     1  UNL1       -0.2524
     23 N          13.3080  -27.8831   14.0880 N.am    1  UNL1       -0.2886
     24 H          15.5263  -26.7464   13.6341 H       1  UNL1        0.1592
     25 H          13.9774  -28.4917   13.6997 H       1  UNL1        0.1510
     26 C          11.9682  -28.3789   14.4126 C.3     1  UNL1        0.0909
     27 C          11.2555  -28.8019   13.1265 C.3     1  UNL1        0.0197
     28 C          10.9914  -30.3085   13.1616 C.3     1  UNL1        0.0018
     29 C           9.9261  -28.0536   13.0103 C.3     1  UNL1        0.0018
@<TRIPOS>BOND
     1    14    15    1
     2    15     5    1
     3     5    10   ar
     4     5     6   ar
     5     6     7   ar
     6     7     8   ar
     7     8    13   ar
     8     8     9   ar
     9     9    10   ar
    10     9    11   ar
    11    11    12   ar
    12    12    13   ar
    13    13     4    1
    14     4     2    1
    15     2     3    2
    16     2     1    1
    17     1    16    1
    18    16    17    1
    19    16    18    1
    20    18    19    2
    21    18    20   am
    22    20    21   am
    23    21    22    2
    24    21    23   am
    25    23    26    1
    26    26    27    1
    27    27    28    1
    28    27    29    1
    29    20    24    1
    30    23    25    1
#	Name:			ZINC21955661
#	Creating user name:	trannguyen
#	Creation time:		Wed Dec  7 14:36:19 2022


#	Modifying user name:	trannguyen
#	Modification time:	Wed Dec  7 14:36:19 2022

@<TRIPOS>MOLECULE
ZINC21955661
 31 32 0 0 0
SMALL
GASTEIGER

@<TRIPOS>ATOM
      1 N          21.0361  -21.7600   16.7528 N.am    1  UNL1       -0.2809
      2 C          20.5740  -20.5078   16.9394 C.2     1  UNL1        0.2708
      3 O          19.4919  -20.3317   17.4582 O.2     1  UNL1       -0.2707
      4 H          21.8822  -21.9057   16.2711 H       1  UNL1        0.1550
      5 C          18.8818  -25.0168   18.2159 C.ar    1  UNL1        0.0504
      6 C          18.7117  -24.6063   16.9001 C.ar    1  UNL1        0.0159
      7 C          19.4206  -23.5246   16.4175 C.ar    1  UNL1        0.0159
      8 C          20.3126  -22.8541   17.2442 C.ar    1  UNL1        0.0505
      9 C          20.4868  -23.2681   18.5583 C.ar    1  UNL1        0.0159
     10 C          19.7734  -24.3460   19.0427 C.ar    1  UNL1        0.0159
     11 C          16.9564  -25.9187   19.2864 C.2     1  UNL1        0.2252
     12 O          16.5367  -24.7930   19.4533 O.2     1  UNL1       -0.2748
     13 N          18.1582  -26.1108   18.7073 N.am    1  UNL1       -0.2839
     14 H          18.5275  -27.0201   18.6297 H       1  UNL1        0.1549
     15 C          15.0161  -26.6290   20.6574 C.3     1  UNL1        0.0091
     16 C          16.1344  -27.1025   19.7266 C.3     1  UNL1        0.0692
     17 C          15.5231  -27.7833   18.5004 C.3     1  UNL1        0.0091
     18 C          17.0291  -28.0970   20.4692 C.3     1  UNL1        0.0091
     19 C          21.4018  -19.3264   16.5034 C.3     1  UNL1        0.2927
     20 O          20.8021  -18.7232   15.3266 O.3     1  UNL1       -0.4384
     21 C          21.4857  -18.8222   14.1756 C.2     1  UNL1        0.3174
     22 O          21.9898  -17.8393   13.6859 O.2     1  UNL1       -0.2501
     23 C          21.6244  -20.1591   13.4942 C.3     1  UNL1        0.1096
     24 C          20.3199  -20.5012   12.7717 C.3     1  UNL1        0.0117
     25 C          19.6554  -21.6966   13.4573 C.3     1  UNL1        0.0015
     26 C          19.8096  -22.9393   12.5782 C.3     1  UNL1        0.0117
     27 C          18.4274  -23.4328   12.1457 C.3     1  UNL1        0.0588
     28 C          17.3483  -22.8117   13.0424 C.3     1  UNL1        0.0242
     29 C          16.0422  -23.6215   13.2054 C.3     1  UNL1        0.0696
     30 S          16.6430  -25.3374   13.5705 S.3     1  UNL1       -0.0821
     31 S          18.3275  -25.2638   12.3401 S.3     1  UNL1       -0.0830
@<TRIPOS>BOND
     1    15    16    1
     2    16    17    1
     3    16    18    1
     4    16    11    1
     5    11    12    2
     6    11    13   am
     7    13     5    1
     8     5    10   ar
     9     5     6   ar
    10     6     7   ar
    11     7     8   ar
    12     8     9   ar
    13     8     1    1
    14     9    10   ar
    15     1     2   am
    16     2     3    2
    17     2    19    1
    18    19    20    1
    19    20    21    1
    20    21    22    2
    21    21    23    1
    22    23    24    1
    23    24    25    1
    24    25    26    1
    25    26    27    1
    26    27    31    1
    27    27    28    1
    28    28    29    1
    29    29    30    1
    30    30    31    1
    31    13    14    1
    32     1     4    1
#	Name:			ZINC21968645
#	Creating user name:	trannguyen
#	Creation time:		Wed Dec  7 14:36:19 2022


#	Modifying user name:	trannguyen
#	Modification time:	Wed Dec  7 14:36:19 2022

@<TRIPOS>MOLECULE
ZINC21968645
 38 40 0 0 0
SMALL
GASTEIGER

@<TRIPOS>ATOM
      1 C          14.6400  -27.1877   15.0210 C.2     1  UNL1        0.2399
      2 O          15.5772  -27.6228   15.6560 O.2     1  UNL1       -0.2735
      3 N          14.7440  -25.9984   14.3954 N.am    1  UNL1       -0.2336
      4 H          13.9834  -25.6452   13.8799 H       1  UNL1        0.1728
      5 N          15.9347  -25.2648   14.4787 N.am    1  UNL1       -0.2303
      6 C          16.5279  -24.8131   13.3560 C.2     1  UNL1        0.2615
      7 O          16.0297  -25.0422   12.2708 O.2     1  UNL1       -0.2686
      8 H          16.3381  -25.0794   15.3573 H       1  UNL1        0.1731
      9 C          17.7823  -24.0402   13.4438 C.ar    1  UNL1        0.0580
     10 C          17.8462  -22.7473   12.9186 C.ar    1  UNL1        0.0079
     11 C          19.0179  -22.0269   13.0013 C.ar    1  UNL1        0.0402
     12 C          20.1369  -22.5829   13.6066 C.ar    1  UNL1        0.1722
     13 C          20.0815  -23.8743   14.1285 C.ar    1  UNL1        0.1725
     14 C          18.9085  -24.5999   14.0531 C.ar    1  UNL1        0.0446
     15 O          21.1810  -24.4182   14.7157 O.3     1  UNL1       -0.4684
     16 C          21.9557  -25.3248   13.9281 C.3     1  UNL1        0.2526
     17 O          21.2895  -21.8692   13.6853 O.3     1  UNL1       -0.4724
     18 C          21.2265  -20.6064   14.3511 C.3     1  UNL1        0.2056
     19 C          21.4467  -20.8092   15.8515 C.3     1  UNL1        0.0473
     20 C          20.0951  -20.8214   16.5683 C.3     1  UNL1        0.0037
     21 C          20.1160  -21.8741   17.6785 C.3     1  UNL1        0.0001
     22 C          19.8282  -19.4433   17.1771 C.3     1  UNL1        0.0001
     23 C          13.3592  -27.9768   14.9313 C.3     1  UNL1        0.1111
     24 C          12.1760  -27.0689   15.2730 C.3     1  UNL1        0.1190
     25 C          10.7090  -28.3275   16.9124 C.ar    1  UNL1        0.1645
     26 N           9.6113  -29.0281   16.8534 N.ar    1  UNL1       -0.1533
     27 N           9.1917  -29.0656   15.5166 N.ar    1  UNL1       -0.2539
     28 C          10.0805  -28.3552   14.7922 C.ar    1  UNL1        0.1765
     29 S          10.0250  -28.0908   13.1017 S.2     1  UNL1       -0.0114
     30 N          11.0199  -27.8908   15.6398 N.ar    1  UNL1       -0.2911
     31 H           8.3938  -29.5263   15.1698 H       1  UNL1        0.1910
     32 C          13.7422  -27.2271   21.6787 C.3     1  UNL1        0.0310
     33 C          12.9478  -27.5154   20.4310 C.ar    1  UNL1       -0.0218
     34 C          13.3649  -28.5089   19.5632 C.ar    1  UNL1       -0.0042
     35 C          12.6421  -28.7774   18.4189 C.ar    1  UNL1        0.0027
     36 C          11.4888  -28.0447   18.1379 C.ar    1  UNL1        0.0359
     37 C          11.0767  -27.0404   19.0141 C.ar    1  UNL1        0.0027
     38 C          11.8049  -26.7854   20.1580 C.ar    1  UNL1       -0.0042
@<TRIPOS>BOND
     1    32    33    1
     2    33    38   ar
     3    33    34   ar
     4    34    35   ar
     5    35    36   ar
     6    36    37   ar
     7    36    25    1
     8    37    38   ar
     9    25    30   ar
    10    25    26   ar
    11    26    27   ar
    12    27    28   ar
    13    28    29    2
    14    28    30   ar
    15    30    24    1
    16    24    23    1
    17    23     1    1
    18     1     2    2
    19     1     3   am
    20     3     5    1
    21     5     6   am
    22     6     7    2
    23     6     9    1
    24     9    14   ar
    25     9    10   ar
    26    10    11   ar
    27    11    12   ar
    28    12    13   ar
    29    12    17    1
    30    13    14   ar
    31    13    15    1
    32    15    16    1
    33    17    18    1
    34    18    19    1
    35    19    20    1
    36    20    21    1
    37    20    22    1
    38    27    31    1
    39     3     4    1
    40     5     8    1
#	Name:			ZINC22057395
#	Creating user name:	trannguyen
#	Creation time:		Wed Dec  7 14:36:20 2022


#	Modifying user name:	trannguyen
#	Modification time:	Wed Dec  7 14:36:20 2022

@<TRIPOS>MOLECULE
ZINC22057395
 30 32 0 0 0
SMALL
GASTEIGER

@<TRIPOS>ATOM
      1 C          21.2172  -26.6431   14.3119 C.3     1  UNL1        0.1918
      2 N          20.9766  -25.1973   14.4114 N.4     1  UNL1        0.2855
      3 C          22.1932  -24.4378   14.0905 C.3     1  UNL1        0.1277
      4 C          21.8807  -22.9400   14.1277 C.3     1  UNL1        0.1526
      5 N          21.3749  -22.5806   15.4599 N.pl3   1  UNL1       -0.2973
      6 C          20.1585  -23.3401   15.7808 C.3     1  UNL1        0.1526
      7 C          20.4709  -24.8380   15.7435 C.3     1  UNL1        0.1277
      8 H          20.2620  -24.9514   13.7264 H       1  UNL1        0.2074
      9 C          21.1458  -21.2034   15.5546 C.ar    1  UNL1        0.0483
     10 C          20.5048  -20.6809   16.6702 C.ar    1  UNL1        0.0176
     11 C          20.2842  -19.3208   16.7655 C.ar    1  UNL1        0.0379
     12 C          20.6920  -18.4784   15.7419 C.ar    1  UNL1        0.1338
     13 C          21.3276  -18.9999   14.6250 C.ar    1  UNL1        0.0379
     14 C          21.5542  -20.3591   14.5306 C.ar    1  UNL1        0.0176
     15 O          20.4690  -17.1399   15.8339 O.3     1  UNL1       -0.5055
     16 H          20.0396  -16.7872   16.5884 H       1  UNL1        0.2922
     17 N          22.9461  -27.3863   12.7066 N.am    1  UNL1       -0.2767
     18 C          21.6782  -26.9809   12.9176 C.2     1  UNL1        0.2822
     19 O          20.9066  -26.8929   11.9857 O.2     1  UNL1       -0.2684
     20 H          23.5945  -27.3802   13.4474 H       1  UNL1        0.1551
     21 C          23.1347  -29.1389   11.0472 C.ar    1  UNL1        0.1519
     22 C          23.5272  -29.5586    9.7864 C.ar    1  UNL1        0.0382
     23 C          24.1224  -28.6659    8.9147 C.ar    1  UNL1        0.0032
     24 C          24.3276  -27.3529    9.2969 C.ar    1  UNL1        0.0015
     25 C          23.9346  -26.9253   10.5509 C.ar    1  UNL1        0.0178
     26 C          23.3414  -27.8166   11.4330 C.ar    1  UNL1        0.0849
     27 O          22.5486  -30.0157   11.9055 O.3     1  UNL1       -0.4742
     28 C          21.2441  -30.4867   11.5615 C.3     1  UNL1        0.2055
     29 C          19.8461  -32.5209   11.1741 C.3     1  UNL1        0.0040
     30 C          21.2444  -32.0165   11.5362 C.3     1  UNL1        0.0473
@<TRIPOS>UNITY_ATOM_ATTR
2 1
charge 1
@<TRIPOS>BOND
     1    29    30    1
     2    30    28    1
     3    28    27    1
     4    27    21    1
     5    21    26   ar
     6    21    22   ar
     7    22    23   ar
     8    23    24   ar
     9    24    25   ar
    10    25    26   ar
    11    26    17    1
    12    17    18   am
    13    18    19    2
    14    18     1    1
    15     1     2    1
    16     2     7    1
    17     2     3    1
    18     3     4    1
    19     4     5    1
    20     5     6    1
    21     5     9    1
    22     6     7    1
    23     9    14   ar
    24     9    10   ar
    25    10    11   ar
    26    11    12   ar
    27    12    13   ar
    28    12    15    1
    29    13    14   ar
    30    17    20    1
    31     2     8    1
    32    15    16    1
#	Name:			ZINC22091254
#	Creating user name:	trannguyen
#	Creation time:		Wed Dec  7 14:36:19 2022


#	Modifying user name:	trannguyen
#	Modification time:	Wed Dec  7 14:36:19 2022

@<TRIPOS>MOLECULE
ZINC22091254
 39 41 0 0 0
SMALL
GASTEIGER

@<TRIPOS>ATOM
      1 C          12.8973  -25.8989   15.0712 C.2     1  UNL1        0.2708
      2 O          11.9550  -25.1674   14.8522 O.2     1  UNL1       -0.2707
      3 N          12.7652  -27.2317   14.9205 N.am    1  UNL1       -0.2807
      4 H          13.5464  -27.8198   15.0346 H       1  UNL1        0.1550
      5 C          11.5233  -27.7769   14.6033 C.ar    1  UNL1        0.0548
      6 C          11.0780  -27.7801   13.2882 C.ar    1  UNL1        0.0148
      7 C           9.8490  -28.3247   12.9754 C.ar    1  UNL1        0.0013
      8 C           9.0470  -28.8627   13.9692 C.ar    1  UNL1        0.0002
      9 C           9.4702  -28.8635   15.2806 C.ar    1  UNL1        0.0058
     10 C          10.7137  -28.3202   15.6118 C.ar    1  UNL1        0.0668
     11 C          11.1730  -28.3183   17.0137 C.2     1  UNL1        0.2472
     12 O          12.3073  -28.6644   17.2822 O.2     1  UNL1       -0.2701
     13 N          10.3355  -27.9331   17.9967 N.am    1  UNL1       -0.2987
     14 H           9.4171  -27.6529   17.7793 H       1  UNL1        0.1500
     15 C          10.7916  -27.9312   19.3889 C.3     1  UNL1        0.0944
     16 C          11.0820  -26.4948   19.8285 C.3     1  UNL1        0.0262
     17 C           9.7194  -28.5191   20.2696 C.ar    1  UNL1       -0.0045
     18 C           8.8556  -29.4726   19.7641 C.ar    1  UNL1       -0.0027
     19 C           7.8748  -30.0151   20.5732 C.ar    1  UNL1       -0.0003
     20 C           7.7517  -29.5970   21.8851 C.ar    1  UNL1       -0.0000
     21 C           8.6124  -28.6400   22.3892 C.ar    1  UNL1       -0.0003
     22 C           9.5959  -28.1008   21.5814 C.ar    1  UNL1       -0.0027
     23 C          14.2160  -25.3175   15.5118 C.3     1  UNL1        0.2927
     24 O          14.4212  -24.0355   14.8615 O.3     1  UNL1       -0.4383
     25 C          15.3403  -23.9880   13.8844 C.2     1  UNL1        0.3192
     26 O          15.3987  -23.0257   13.1562 O.2     1  UNL1       -0.2500
     27 C          16.2994  -25.1350   13.6959 C.3     1  UNL1        0.1307
     28 C          17.5064  -24.6623   12.8831 C.3     1  UNL1        0.1014
     29 C          19.0292  -22.7645   13.0107 C.2     1  UNL1        0.2458
     30 O          19.1184  -22.7921   11.7988 O.2     1  UNL1       -0.2701
     31 N          18.2481  -23.6580   13.6495 N.am    1  UNL1       -0.3003
     32 H          18.1759  -23.6356   14.6311 H       1  UNL1        0.1498
     33 C          20.7078  -21.0433   17.3834 C.3     1  UNL1        0.0310
     34 C          20.5876  -20.9186   15.8864 C.ar    1  UNL1       -0.0217
     35 C          21.1794  -19.8521   15.2327 C.ar    1  UNL1       -0.0043
     36 C          21.0782  -19.7330   13.8582 C.ar    1  UNL1       -0.0002
     37 C          20.3815  -20.6758   13.1305 C.ar    1  UNL1        0.0045
     38 C          19.7778  -21.7509   13.7841 C.ar    1  UNL1        0.0530
     39 C          19.8833  -21.8649   15.1714 C.ar    1  UNL1        0.0003
@<TRIPOS>BOND
     1    33    34    1
     2    34    39   ar
     3    34    35   ar
     4    35    36   ar
     5    36    37   ar
     6    37    38   ar
     7    38    39   ar
     8    38    29    1
     9    29    30    2
    10    29    31   am
    11    31    28    1
    12    28    27    1
    13    27    25    1
    14    25    26    2
    15    25    24    1
    16    24    23    1
    17    23     1    1
    18     1     2    2
    19     1     3   am
    20     3     5    1
    21     5    10   ar
    22     5     6   ar
    23     6     7   ar
    24     7     8   ar
    25     8     9   ar
    26     9    10   ar
    27    10    11    1
    28    11    12    2
    29    11    13   am
    30    13    15    1
    31    15    16    1
    32    15    17    1
    33    17    22   ar
    34    17    18   ar
    35    18    19   ar
    36    19    20   ar
    37    20    21   ar
    38    21    22   ar
    39    31    32    1
    40     3     4    1
    41    13    14    1
#	Name:			ZINC22248515
#	Creating user name:	trannguyen
#	Creation time:		Wed Dec  7 14:36:19 2022


#	Modifying user name:	trannguyen
#	Modification time:	Wed Dec  7 14:36:19 2022

@<TRIPOS>MOLECULE
ZINC22248515
 31 33 0 0 0
SMALL
GASTEIGER

@<TRIPOS>ATOM
      1 C          19.2157  -24.2657   13.7432 C.2     1  UNL1        0.2630
      2 O          19.3109  -24.5117   14.9269 O.2     1  UNL1       -0.2712
      3 N          20.1636  -23.5300   13.1294 N.am    1  UNL1       -0.2993
      4 H          20.0863  -23.3303   12.1685 H       1  UNL1        0.1498
      5 C          18.0374  -24.7825   12.9585 C.3     1  UNL1        0.2444
      6 C          18.4608  -25.0361   11.5102 C.3     1  UNL1        0.0575
      7 O          16.9862  -23.8149   12.9850 O.3     1  UNL1       -0.4397
      8 C          15.8253  -24.1872   13.5636 C.2     1  UNL1        0.3418
      9 O          14.9486  -23.3650   13.7528 O.2     1  UNL1       -0.2449
     10 C          14.4913  -25.8952   14.5876 C.2     1  UNL1        0.0090
     11 C          15.6273  -25.5348   13.9502 C.2     1  UNL1        0.0820
     12 C          15.5521  -27.2318   17.2627 C.3     1  UNL1        0.0540
     13 C          14.7518  -27.9039   16.1769 C.ar    1  UNL1        0.0800
     14 C          14.2859  -27.2934   14.9888 C.ar    1  UNL1        0.0287
     15 C          13.6057  -28.2623   14.2734 C.ar    1  UNL1        0.0571
     16 N          13.6514  -29.3971   14.9915 N.ar    1  UNL1       -0.2532
     17 N          14.3643  -29.1493   16.1697 N.ar    1  UNL1       -0.1739
     18 C          13.0557  -30.6787   14.6053 C.3     1  UNL1        0.1533
     19 C          12.9374  -28.0791   12.9352 C.3     1  UNL1        0.0517
     20 C          21.3090  -23.0276   13.8922 C.3     1  UNL1        0.0942
     21 C          22.6068  -23.4994   13.2337 C.3     1  UNL1        0.0262
     22 C          21.2758  -21.5211   13.9145 C.ar    1  UNL1       -0.0045
     23 C          21.6691  -20.8119   12.8212 C.ar    1  UNL1       -0.0027
     24 C          21.6449  -19.4187   12.8231 C.ar    1  UNL1       -0.0003
     25 C          21.2273  -18.7264   13.9183 C.ar    1  UNL1       -0.0000
     26 C          20.8137  -19.4240   15.0656 C.ar    1  UNL1       -0.0003
     27 C          20.8385  -20.8413   15.0637 C.ar    1  UNL1       -0.0024
     28 C          20.4306  -21.5390   16.2136 C.ar    1  UNL1       -0.0003
     29 C          20.0083  -20.8470   17.3066 C.ar    1  UNL1       -0.0000
     30 C          19.9838  -19.4534   17.3085 C.ar    1  UNL1       -0.0000
     31 C          20.3765  -18.7442   16.2154 C.ar    1  UNL1       -0.0000
@<TRIPOS>BOND
     1    12    13    1
     2    13    17   ar
     3    13    14   ar
     4    14    15   ar
     5    14    10    1
     6    15    16   ar
     7    15    19    1
     8    16    17   ar
     9    16    18    1
    10    10    11    2
    11    11     8    1
    12     8     9    2
    13     8     7    1
    14     7     5    1
    15     5     6    1
    16     5     1    1
    17     1     2    2
    18     1     3   am
    19     3    20    1
    20    20    21    1
    21    20    22    1
    22    22    27   ar
    23    22    23   ar
    24    23    24   ar
    25    24    25   ar
    26    25    26   ar
    27    26    31   ar
    28    26    27   ar
    29    27    28   ar
    30    28    29   ar
    31    29    30   ar
    32    30    31   ar
    33     3     4    1
#	Name:			ZINC22361566
#	Creating user name:	trannguyen
#	Creation time:		Wed Dec  7 14:36:20 2022


#	Modifying user name:	trannguyen
#	Modification time:	Wed Dec  7 14:36:20 2022

@<TRIPOS>MOLECULE
ZINC22361566
 32 35 0 0 0
SMALL
GASTEIGER

@<TRIPOS>ATOM
      1 S          16.9188  -24.6449   13.9641 S.3     1  UNL1       -0.0768
      2 C          12.7633  -25.7646   15.0380 C.ar    1  UNL1        0.1865
      3 N          13.0602  -24.4830   15.1290 N.ar    1  UNL1       -0.1249
      4 N          14.3290  -24.0504   14.8198 N.ar    1  UNL1       -0.1331
      5 C          15.2398  -24.9188   14.4229 C.ar    1  UNL1        0.1611
      6 S          14.3176  -26.4475   14.4827 S.2     1  UNL1       -0.0242
      7 N          11.5615  -26.4115   15.3035 N.pl3   1  UNL1       -0.2912
      8 H          10.9113  -26.0075   15.9226 H       1  UNL1        0.1541
      9 C          11.3569  -30.0344   14.7005 C.ar    1  UNL1        0.1400
     10 C          10.7081  -30.0572   13.4734 C.ar    1  UNL1        0.0370
     11 C          10.3458  -28.8738   12.8589 C.ar    1  UNL1        0.0044
     12 C          10.6278  -27.6640   13.4633 C.ar    1  UNL1        0.0149
     13 C          11.2766  -27.6348   14.6918 C.ar    1  UNL1        0.0528
     14 C          11.6463  -28.8230   15.3078 C.ar    1  UNL1        0.0515
     15 C          10.6675  -32.1354   15.5737 C.3     1  UNL1        0.2525
     16 O          11.7127  -31.1993   15.3032 O.3     1  UNL1       -0.4714
     17 C          16.8040  -23.6298   12.4650 C.3     1  UNL1        0.1488
     18 C          18.1627  -23.0685   12.1331 C.2     1  UNL1        0.2339
     19 O          18.5128  -22.9721   10.9759 O.2     1  UNL1       -0.2741
     20 N          18.9864  -22.6685   13.1219 N.am    1  UNL1       -0.3033
     21 H          18.7006  -22.7430   14.0611 H       1  UNL1        0.1495
     22 C          20.3072  -22.1229   12.7993 C.3     1  UNL1        0.0933
     23 C          21.1615  -22.0717   14.0676 C.3     1  UNL1        0.0369
     24 C          22.6121  -22.5343   13.8522 C.3     1  UNL1        0.0057
     25 C          22.1205  -23.9578   14.1769 C.3     1  UNL1        0.0008
     26 C          20.9860  -23.2982   14.9785 C.3     1  UNL1        0.0057
     27 C          21.0490  -20.7575   14.7963 C.ar    1  UNL1       -0.0212
     28 C          21.5352  -19.6011   14.2155 C.ar    1  UNL1       -0.0042
     29 C          21.4276  -18.3948   14.8819 C.ar    1  UNL1       -0.0003
     30 C          20.8429  -18.3464   16.1335 C.ar    1  UNL1       -0.0000
     31 C          20.3618  -19.5036   16.7169 C.ar    1  UNL1       -0.0003
     32 C          20.4646  -20.7091   16.0482 C.ar    1  UNL1       -0.0042
@<TRIPOS>BOND
     1    15    16    1
     2    16     9    1
     3     9    14   ar
     4     9    10   ar
     5    10    11   ar
     6    11    12   ar
     7    12    13   ar
     8    13    14   ar
     9    13     7    1
    10     7     2    1
    11     2     6   ar
    12     2     3   ar
    13     3     4   ar
    14     4     5   ar
    15     5     6   ar
    16     5     1    1
    17     1    17    1
    18    17    18    1
    19    18    19    2
    20    18    20   am
    21    20    22    1
    22    22    23    1
    23    23    26    1
    24    23    24    1
    25    23    27    1
    26    24    25    1
    27    25    26    1
    28    27    32   ar
    29    27    28   ar
    30    28    29   ar
    31    29    30   ar
    32    30    31   ar
    33    31    32   ar
    34     7     8    1
    35    20    21    1
#	Name:			ZINC22418668
#	Creating user name:	trannguyen
#	Creation time:		Wed Dec  7 14:36:19 2022


#	Modifying user name:	trannguyen
#	Modification time:	Wed Dec  7 14:36:19 2022

@<TRIPOS>MOLECULE
ZINC22418668
 42 45 0 0 0
SMALL
GASTEIGER

@<TRIPOS>ATOM
      1 C          18.5616  -25.7122   13.4042 C.3     1  UNL1        0.0983
      2 N          18.9997  -24.3499   13.7363 N.4     1  UNL1        0.2787
      3 C          19.0577  -23.5075   12.5336 C.3     1  UNL1        0.1274
      4 C          19.4401  -22.0800   12.9318 C.3     1  UNL1        0.1526
      5 N          20.7374  -22.0976   13.6220 N.pl3   1  UNL1       -0.2973
      6 C          20.6794  -22.9401   14.8247 C.3     1  UNL1        0.1526
      7 C          20.2971  -24.3675   14.4265 C.3     1  UNL1        0.1274
      8 H          18.3110  -23.9458   14.3708 H       1  UNL1        0.2070
      9 C          21.1540  -20.8024   13.9377 C.ar    1  UNL1        0.0481
     10 C          21.4060  -20.4548   15.2588 C.ar    1  UNL1        0.0145
     11 C          21.8225  -19.1746   15.5669 C.ar    1  UNL1        0.0013
     12 C          21.9785  -18.2362   14.5632 C.ar    1  UNL1        0.0001
     13 C          21.7233  -18.5774   13.2476 C.ar    1  UNL1        0.0013
     14 C          21.3117  -19.8573   12.9320 C.ar    1  UNL1        0.0145
     15 C          14.8750  -26.5490   15.3980 C.ar    1  UNL1        0.0479
     16 C          16.0490  -27.1598   15.8202 C.ar    1  UNL1        0.0144
     17 C          17.2385  -26.8871   15.1737 C.ar    1  UNL1        0.0025
     18 C          17.2617  -26.0072   14.1072 C.ar    1  UNL1        0.0284
     19 C          16.0958  -25.3932   13.6879 C.ar    1  UNL1        0.0025
     20 C          14.9019  -25.6657   14.3263 C.ar    1  UNL1        0.0144
     21 C          13.6732  -27.5585   17.3163 C.3     1  UNL1        0.1122
     22 N          13.6702  -26.8222   16.0499 N.pl3   1  UNL1       -0.3041
     23 C          12.4037  -26.3722   15.4671 C.3     1  UNL1        0.1122
     24 C          19.6252  -26.7146   13.8571 C.3     1  UNL1        0.1511
     25 N          19.9199  -27.6421   12.7621 N.am    1  UNL1       -0.2832
     26 C          21.1600  -27.6923   12.2368 C.2     1  UNL1        0.3046
     27 O          22.0343  -26.9678   12.6717 O.2     1  UNL1       -0.2525
     28 N          21.4311  -28.5457   11.2293 N.am    1  UNL1       -0.2681
     29 H          19.2120  -28.2288   12.4099 H       1  UNL1        0.1512
     30 H          20.7074  -29.0782   10.8271 H       1  UNL1        0.1564
     31 C          22.7431  -28.6748   10.7544 C.ar    1  UNL1        0.0578
     32 C          23.4419  -29.8563   10.9600 C.ar    1  UNL1        0.0549
     33 C          24.7398  -29.9849   10.4906 C.ar    1  UNL1        0.1767
     34 C          25.3394  -28.9324    9.8093 C.ar    1  UNL1        0.2061
     35 C          24.6406  -27.7481    9.6083 C.ar    1  UNL1        0.1767
     36 C          23.3428  -27.6213   10.0783 C.ar    1  UNL1        0.0549
     37 O          25.2278  -26.7159    8.9455 O.3     1  UNL1       -0.4682
     38 C          24.9121  -26.5716    7.5592 C.3     1  UNL1        0.2526
     39 O          26.6125  -29.0598    9.3433 O.3     1  UNL1       -0.4654
     40 C          27.6706  -28.7724   10.2597 C.3     1  UNL1        0.2528
     41 O          25.4243  -31.1426   10.6920 O.3     1  UNL1       -0.4682
     42 C          24.6677  -32.3548   10.6762 C.3     1  UNL1        0.2526
@<TRIPOS>UNITY_ATOM_ATTR
2 1
charge 1
@<TRIPOS>BOND
     1    21    22    1
     2    22    23    1
     3    22    15    1
     4    15    20   ar
     5    15    16   ar
     6    16    17   ar
     7    17    18   ar
     8    18    19   ar
     9    18     1    1
    10    19    20   ar
    11     1    24    1
    12     1     2    1
    13    24    25    1
    14    25    26   am
    15    26    27    2
    16    26    28   am
    17    28    31    1
    18    31    36   ar
    19    31    32   ar
    20    32    33   ar
    21    33    34   ar
    22    33    41    1
    23    34    35   ar
    24    34    39    1
    25    35    36   ar
    26    35    37    1
    27    37    38    1
    28    39    40    1
    29    41    42    1
    30     2     7    1
    31     2     3    1
    32     3     4    1
    33     4     5    1
    34     5     6    1
    35     5     9    1
    36     6     7    1
    37     9    14   ar
    38     9    10   ar
    39    10    11   ar
    40    11    12   ar
    41    12    13   ar
    42    13    14   ar
    43    25    29    1
    44    28    30    1
    45     2     8    1
#	Name:			ZINC22447045
#	Creating user name:	trannguyen
#	Creation time:		Wed Dec  7 14:36:19 2022


#	Modifying user name:	trannguyen
#	Modification time:	Wed Dec  7 14:36:19 2022

@<TRIPOS>MOLECULE
ZINC22447045
 44 48 0 0 0
SMALL
GASTEIGER

@<TRIPOS>ATOM
      1 C          21.8991  -30.4153   10.9512 C.ar    1  UNL1        0.0726
      2 C          22.5112  -29.9276    9.8358 C.ar    1  UNL1        0.0345
      3 C          23.3211  -28.7870    9.9265 C.ar    1  UNL1        0.0929
      4 C          23.4352  -28.2224   11.2170 C.ar    1  UNL1        0.0794
      5 S          22.4317  -29.2818   12.2234 S.2     1  UNL1       -0.0742
      6 C          24.2064  -27.0946   11.4380 C.ar    1  UNL1        0.1414
      7 N          24.8383  -26.5467   10.3987 N.ar    1  UNL1       -0.2084
      8 C          24.7285  -27.0868    9.1979 C.ar    1  UNL1        0.2001
      9 N          24.0111  -28.1507    8.9460 N.ar    1  UNL1       -0.2233
     10 C          20.3362  -32.4888   11.1724 C.1     1  UNL1       -0.0639
     11 C          21.0402  -31.5547   11.0728 C.1     1  UNL1       -0.0561
     12 C          19.4534  -33.6601   11.2975 C.3     1  UNL1        0.1676
     13 C          17.1262  -34.2113   10.8313 C.2     1  UNL1        0.2792
     14 O          17.2550  -35.2046   11.5150 O.2     1  UNL1       -0.2687
     15 N          18.1668  -33.3723   10.6589 N.am    1  UNL1       -0.2886
     16 H          18.0622  -32.5659   10.1037 H       1  UNL1        0.1505
     17 C          15.8027  -33.9152   10.1742 C.3     1  UNL1        0.1919
     18 C          11.2978  -32.3322   13.1915 C.3     1  UNL1        0.1677
     19 N          12.2599  -32.7788   12.1752 N.4     1  UNL1        0.2895
     20 C          13.2628  -31.7388   11.9064 C.3     1  UNL1        0.1677
     21 C          14.1959  -32.2106   10.7886 C.3     1  UNL1        0.1680
     22 N          14.8406  -33.4685   11.1906 N.4     1  UNL1        0.2920
     23 C          13.8377  -34.5085   11.4595 C.3     1  UNL1        0.1680
     24 C          12.9046  -34.0368   12.5772 C.3     1  UNL1        0.1677
     25 H          11.7453  -32.9507   11.3115 H       1  UNL1        0.2074
     26 H          15.3552  -33.2966   12.0543 H       1  UNL1        0.2078
     27 N          24.3149  -26.5448   12.7059 N.pl3   1  UNL1       -0.2974
     28 H          25.0519  -26.8173   13.2991 H       1  UNL1        0.1536
     29 C          23.3766  -25.6025   13.1428 C.ar    1  UNL1        0.0504
     30 C          23.7552  -24.2788   13.3268 C.ar    1  UNL1        0.0178
     31 C          22.8291  -23.3493   13.7574 C.ar    1  UNL1        0.0391
     32 C          21.5210  -23.7368   14.0070 C.ar    1  UNL1        0.1496
     33 C          21.1427  -25.0604   13.8292 C.ar    1  UNL1        0.0928
     34 C          22.0669  -25.9905   13.3923 C.ar    1  UNL1        0.0291
     35 CL         19.5070  -25.5462   14.1491 Cl      1  UNL1       -0.0790
     36 O          20.6098  -22.8206   14.4316 O.3     1  UNL1       -0.4698
     37 C          20.1638  -21.8577   13.4746 C.3     1  UNL1        0.2321
     38 C          20.7778  -20.5173   13.7870 C.ar    1  UNL1        0.0234
     39 C          21.3373  -19.7605   12.7741 C.ar    1  UNL1       -0.0005
     40 C          21.8957  -18.5285   13.0583 C.ar    1  UNL1        0.0021
     41 C          21.8954  -18.0516   14.3556 C.ar    1  UNL1        0.0296
     42 C          21.3354  -18.8084   15.3706 C.ar    1  UNL1        0.1399
     43 C          20.7763  -20.0427   15.0847 C.ar    1  UNL1        0.0289
     44 F          21.3341  -18.3431   16.6389 F       1  UNL1       -0.2042
@<TRIPOS>UNITY_ATOM_ATTR
19 1
charge 1
22 1
charge 1
@<TRIPOS>BOND
     1    18    19    1
     2    19    24    1
     3    19    20    1
     4    20    21    1
     5    21    22    1
     6    22    23    1
     7    22    17    1
     8    23    24    1
     9    17    13    1
    10    13    14    2
    11    13    15   am
    12    15    12    1
    13    12    10    1
    14    10    11    3
    15    11     1    1
    16     1     5   ar
    17     1     2   ar
    18     2     3   ar
    19     3     9   ar
    20     3     4   ar
    21     4     5   ar
    22     4     6   ar
    23     6     7   ar
    24     6    27    1
    25     7     8   ar
    26     8     9   ar
    27    27    29    1
    28    29    34   ar
    29    29    30   ar
    30    30    31   ar
    31    31    32   ar
    32    32    33   ar
    33    32    36    1
    34    33    34   ar
    35    33    35    1
    36    36    37    1
    37    37    38    1
    38    38    43   ar
    39    38    39   ar
    40    39    40   ar
    41    40    41   ar
    42    41    42   ar
    43    42    43   ar
    44    42    44    1
    45    19    25    1
    46    22    26    1
    47    15    16    1
    48    27    28    1
#	Name:			ZINC22450541
#	Creating user name:	trannguyen
#	Creation time:		Wed Dec  7 14:36:19 2022


#	Modifying user name:	trannguyen
#	Modification time:	Wed Dec  7 14:36:19 2022

@<TRIPOS>MOLECULE
ZINC22450541
 50 55 0 0 0
SMALL
GASTEIGER

@<TRIPOS>ATOM
      1 C          23.5228  -26.6077   12.3492 C.3     1  UNL1        0.0270
      2 C          22.5011  -26.2640   13.4350 C.3     1  UNL1        0.1079
      3 C          22.2923  -24.7697   13.4229 C.ar    1  UNL1        0.0477
      4 C          23.3255  -23.8841   13.6133 C.ar    1  UNL1        0.1019
      5 N          23.0596  -22.5832   13.5946 N.ar    1  UNL1       -0.2122
      6 C          21.8265  -22.1456   13.3848 C.ar    1  UNL1        0.2218
      7 N          20.8076  -22.9727   13.1982 N.ar    1  UNL1       -0.1981
      8 C          21.0007  -24.2859   13.2104 C.ar    1  UNL1        0.1443
      9 N          19.9547  -25.1738   13.0187 N.am    1  UNL1       -0.2061
     10 C          20.1164  -26.5035   13.0259 C.2     1  UNL1        0.3198
     11 O          19.1397  -27.2056   12.8492 O.2     1  UNL1       -0.2513
     12 N          21.3066  -27.1004   13.2193 N.am    1  UNL1       -0.2401
     13 C          21.4094  -28.4979   13.2153 C.ar    1  UNL1        0.0558
     14 C          21.3433  -29.2026   14.4097 C.ar    1  UNL1        0.0181
     15 C          21.4380  -30.5803   14.4045 C.ar    1  UNL1        0.0382
     16 C          21.6118  -31.2592   13.2073 C.ar    1  UNL1        0.1388
     17 C          21.6841  -30.5554   12.0142 C.ar    1  UNL1        0.0382
     18 C          21.5830  -29.1782   12.0175 C.ar    1  UNL1        0.0181
     19 O          21.7110  -32.6154   13.2035 O.3     1  UNL1       -0.4714
     20 C          22.8444  -33.1848   13.8616 C.3     1  UNL1        0.2525
     21 C          18.6693  -24.6576   12.8083 C.ar    1  UNL1        0.0611
     22 C          18.3339  -24.1089   11.5763 C.ar    1  UNL1        0.0153
     23 C          17.0671  -23.5987   11.3635 C.ar    1  UNL1        0.0014
     24 C          16.1265  -23.6311   12.3729 C.ar    1  UNL1        0.0046
     25 C          16.4535  -24.1799   13.6139 C.ar    1  UNL1        0.0544
     26 C          17.7306  -24.6992   13.8269 C.ar    1  UNL1        0.0198
     27 C          15.4477  -24.2164   14.6972 C.2     1  UNL1        0.2428
     28 O          14.3638  -23.6898   14.5381 O.2     1  UNL1       -0.2704
     29 N          15.7329  -24.8333   15.8610 N.am    1  UNL1       -0.3253
     30 H          16.6107  -25.2598   15.9898 H       1  UNL1        0.1453
     31 H          15.0633  -24.8575   16.5822 H       1  UNL1        0.1453
     32 N          21.5936  -20.7802   13.3666 N.pl3   1  UNL1       -0.2825
     33 H          21.7615  -20.2632   12.5458 H       1  UNL1        0.1551
     34 C          21.1203  -20.1364   14.5139 C.ar    1  UNL1        0.0501
     35 C          21.1068  -18.7487   14.5779 C.ar    1  UNL1        0.0147
     36 C          20.6332  -18.1159   15.7102 C.ar    1  UNL1        0.0010
     37 C          20.1835  -18.8622   16.7843 C.ar    1  UNL1       -0.0040
     38 C          20.2010  -20.2435   16.7261 C.ar    1  UNL1       -0.0150
     39 C          20.6680  -20.8827   15.5942 C.ar    1  UNL1        0.0106
     40 C          19.7103  -21.0525   17.8991 C.3     1  UNL1        0.0873
     41 C          20.8252  -21.9846   18.3778 C.3     1  UNL1        0.1106
     42 N          20.4004  -23.3812   18.2132 N.4     1  UNL1        0.2852
     43 C          20.9298  -23.9491   16.9655 C.3     1  UNL1        0.1674
     44 C          20.5323  -25.4240   16.8706 C.3     1  UNL1        0.1677
     45 N          19.0679  -25.5381   16.9181 N.4     1  UNL1        0.2895
     46 C          18.5385  -24.9701   18.1658 C.3     1  UNL1        0.1677
     47 C          18.9360  -23.4951   18.2607 C.3     1  UNL1        0.1674
     48 C          18.6431  -26.9346   16.7536 C.3     1  UNL1        0.1677
     49 H          20.7833  -23.9184   18.9911 H       1  UNL1        0.2072
     50 H          18.6848  -25.0010   16.1401 H       1  UNL1        0.2074
@<TRIPOS>UNITY_ATOM_ATTR
42 1
charge 1
45 1
charge 1
@<TRIPOS>BOND
     1     1     2    1
     2     2    12    1
     3     2     3    1
     4     3     8   ar
     5     3     4   ar
     6     4     5   ar
     7     5     6   ar
     8     6     7   ar
     9     6    32    1
    10     7     8   ar
    11     8     9    1
    12     9    10   am
    13     9    21    1
    14    10    11    2
    15    10    12   am
    16    12    13    1
    17    13    18   ar
    18    13    14   ar
    19    14    15   ar
    20    15    16   ar
    21    16    17   ar
    22    16    19    1
    23    17    18   ar
    24    19    20    1
    25    21    26   ar
    26    21    22   ar
    27    22    23   ar
    28    23    24   ar
    29    24    25   ar
    30    25    26   ar
    31    25    27    1
    32    27    28    2
    33    27    29   am
    34    32    34    1
    35    34    39   ar
    36    34    35   ar
    37    35    36   ar
    38    36    37   ar
    39    37    38   ar
    40    38    39   ar
    41    38    40    1
    42    40    41    1
    43    41    42    1
    44    42    47    1
    45    42    43    1
    46    43    44    1
    47    44    45    1
    48    45    46    1
    49    45    48    1
    50    46    47    1
    51    29    30    1
    52    29    31    1
    53    32    33    1
    54    42    49    1
    55    45    50    1
#	Name:			ZINC22471839
#	Creating user name:	trannguyen
#	Creation time:		Wed Dec  7 14:36:19 2022


#	Modifying user name:	trannguyen
#	Modification time:	Wed Dec  7 14:36:19 2022

@<TRIPOS>MOLECULE
ZINC22471839
 40 43 0 0 0
SMALL
GASTEIGER

@<TRIPOS>ATOM
      1 N          19.3098  -25.4538   14.8627 N.am    1  UNL1       -0.2723
      2 C          20.0240  -24.8359   13.9010 C.2     1  UNL1        0.2704
      3 O          21.0110  -25.3698   13.4410 O.2     1  UNL1       -0.2708
      4 C          18.0581  -24.8613   15.3403 C.3     1  UNL1        0.1202
      5 C          18.3148  -24.1925   19.5515 C.ar    1  UNL1       -0.0000
      6 C          19.2149  -23.5817   18.6986 C.ar    1  UNL1       -0.0003
      7 C          19.1320  -23.7983   17.3358 C.ar    1  UNL1       -0.0026
      8 C          18.1487  -24.6255   16.8260 C.ar    1  UNL1       -0.0023
      9 C          17.2451  -25.2317   17.6785 C.ar    1  UNL1       -0.0026
     10 C          17.3312  -25.0193   19.0417 C.ar    1  UNL1       -0.0003
     11 C          19.7855  -26.7178   15.4302 C.3     1  UNL1        0.0956
     12 C          19.1150  -27.8866   14.7053 C.3     1  UNL1        0.0428
     13 C          20.1376  -29.0027   14.4826 C.3     1  UNL1        0.0916
     14 N          21.0293  -28.6350   13.3800 N.am    1  UNL1       -0.2983
     15 C          21.3395  -29.5425   12.4330 C.2     1  UNL1        0.2820
     16 O          20.8797  -30.6653   12.4938 O.2     1  UNL1       -0.2668
     17 H          21.4020  -27.7251   13.3307 H       1  UNL1        0.1498
     18 C          22.2424  -29.1702   11.3163 C.ar    1  UNL1        0.2194
     19 N          22.2947  -29.9885   10.2203 N.ar    1  UNL1       -0.1882
     20 C          23.1042  -29.6862    9.1782 C.ar    1  UNL1        0.2244
     21 O          23.1633  -30.4012    8.1952 O.3     1  UNL1       -0.4919
     22 C          23.9101  -28.4583    9.2807 C.ar    1  UNL1        0.0707
     23 C          24.7725  -28.0596    8.2635 C.ar    1  UNL1        0.0062
     24 C          25.5052  -26.9003    8.4082 C.ar    1  UNL1        0.0003
     25 C          25.3891  -26.1301    9.5577 C.ar    1  UNL1        0.0015
     26 C          24.5421  -26.5060   10.5760 C.ar    1  UNL1        0.0193
     27 C          23.7884  -27.6773   10.4530 C.ar    1  UNL1        0.0876
     28 N          22.9439  -28.0767   11.4238 N.ar    1  UNL1       -0.2226
     29 H          22.6422  -31.1786    8.1494 H       1  UNL1        0.2938
     30 C          19.5961  -23.4815   13.3974 C.3     1  UNL1        0.2896
     31 O          20.7505  -22.7220   13.0336 O.3     1  UNL1       -0.4656
     32 C          20.9716  -21.5691   13.7185 C.ar    1  UNL1        0.1394
     33 C          20.7732  -21.5273   15.0909 C.ar    1  UNL1        0.0386
     34 C          21.0033  -20.3554   15.7853 C.ar    1  UNL1        0.0272
     35 C          21.4207  -19.2220   15.1123 C.ar    1  UNL1        0.1431
     36 C          21.6140  -19.2598   13.7438 C.ar    1  UNL1        0.0272
     37 C          21.3904  -20.4306   13.0455 C.ar    1  UNL1        0.0386
     38 N          21.6615  -17.9666   15.8581 N.pl3   1  UNL1        0.0577
     39 O          20.7264  -17.2427   16.1500 O.2     1  UNL1       -0.1261
     40 O          22.7947  -17.6571   16.1799 O.2     1  UNL1       -0.1261
@<TRIPOS>BOND
     1     5    10   ar
     2     5     6   ar
     3     6     7   ar
     4     7     8   ar
     5     8     9   ar
     6     8     4    1
     7     9    10   ar
     8     4     1    1
     9     1    11    1
    10     1     2   am
    11    11    12    1
    12    12    13    1
    13    13    14    1
    14    14    15   am
    15    15    16    2
    16    15    18    1
    17    18    28   ar
    18    18    19   ar
    19    19    20   ar
    20    20    21    1
    21    20    22   ar
    22    22    27   ar
    23    22    23   ar
    24    23    24   ar
    25    24    25   ar
    26    25    26   ar
    27    26    27   ar
    28    27    28   ar
    29     2     3    2
    30     2    30    1
    31    30    31    1
    32    31    32    1
    33    32    37   ar
    34    32    33   ar
    35    33    34   ar
    36    34    35   ar
    37    35    36   ar
    38    35    38    1
    39    36    37   ar
    40    38    39    2
    41    38    40    2
    42    14    17    1
    43    21    29    1
#	Name:			ZINC22541350
#	Creating user name:	trannguyen
#	Creation time:		Wed Dec  7 14:36:19 2022


#	Modifying user name:	trannguyen
#	Modification time:	Wed Dec  7 14:36:19 2022

@<TRIPOS>MOLECULE
ZINC22541350
 33 35 0 0 0
SMALL
GASTEIGER

@<TRIPOS>ATOM
      1 C          16.6394  -25.4357   14.8004 C.3     1  UNL1        0.2665
      2 C          17.2305  -24.7285   13.6082 C.ar    1  UNL1        0.0263
      3 C          17.8145  -23.4850   13.7616 C.ar    1  UNL1       -0.0003
      4 C          18.3606  -22.8382   12.6688 C.ar    1  UNL1       -0.0002
      5 C          18.3142  -23.4306   11.4207 C.ar    1  UNL1       -0.0000
      6 C          17.7261  -24.6721   11.2664 C.ar    1  UNL1       -0.0002
      7 C          17.1838  -25.3208   12.3600 C.ar    1  UNL1       -0.0003
      8 N          14.8576  -27.1023   14.3929 N.am    1  UNL1       -0.2807
      9 C          15.2086  -25.8060   14.5063 C.2     1  UNL1        0.2709
     10 O          14.3727  -24.9375   14.3715 O.2     1  UNL1       -0.2705
     11 H          15.5467  -27.8042   14.4346 H       1  UNL1        0.1550
     12 C           9.4101  -28.5146   13.6758 C.3     1  UNL1        0.0310
     13 C          10.8572  -28.1394   13.8663 C.ar    1  UNL1       -0.0218
     14 C          11.2616  -27.5216   15.0354 C.ar    1  UNL1       -0.0030
     15 C          12.5870  -27.1764   15.2130 C.ar    1  UNL1        0.0143
     16 C          13.5140  -27.4506   14.2160 C.ar    1  UNL1        0.0504
     17 C          13.1036  -28.0660   13.0407 C.ar    1  UNL1        0.0143
     18 C          11.7778  -28.4142   12.8717 C.ar    1  UNL1       -0.0030
     19 O          16.6843  -24.5571   15.9555 O.3     1  UNL1       -0.4381
     20 C          17.1496  -25.0798   17.1010 C.2     1  UNL1        0.3177
     21 O          16.3990  -25.6607   17.8487 O.2     1  UNL1       -0.2501
     22 C          18.6081  -24.9422   17.4544 C.3     1  UNL1        0.1113
     23 C          19.0115  -23.4678   17.3898 C.3     1  UNL1        0.0329
     24 C          20.5026  -23.3609   17.0643 C.3     1  UNL1        0.0903
     25 N          20.6903  -22.4602   15.9242 N.am    1  UNL1       -0.3008
     26 C          21.1577  -21.2116   16.1216 C.2     1  UNL1        0.2464
     27 O          21.4236  -20.8325   17.2464 O.2     1  UNL1       -0.2701
     28 H          20.4750  -22.7669   15.0138 H       1  UNL1        0.1497
     29 C          21.3405  -20.3047   14.9768 C.ar    1  UNL1        0.0603
     30 C          21.1555  -20.7573   13.6209 C.ar    1  UNL1        0.0120
     31 C          21.3404  -19.8508   12.6413 C.ar    1  UNL1        0.0356
     32 S          21.7811  -18.3747   13.5353 S.2     1  UNL1       -0.0858
     33 C          21.7021  -18.9852   15.1537 C.ar    1  UNL1        0.0400
@<TRIPOS>BOND
     1    12    13    1
     2    13    18   ar
     3    13    14   ar
     4    14    15   ar
     5    15    16   ar
     6    16    17   ar
     7    16     8    1
     8    17    18   ar
     9     8     9   am
    10     9    10    2
    11     9     1    1
    12     1     2    1
    13     1    19    1
    14     2     7   ar
    15     2     3   ar
    16     3     4   ar
    17     4     5   ar
    18     5     6   ar
    19     6     7   ar
    20    19    20    1
    21    20    21    2
    22    20    22    1
    23    22    23    1
    24    23    24    1
    25    24    25    1
    26    25    26   am
    27    26    27    2
    28    26    29    1
    29    29    33   ar
    30    29    30   ar
    31    30    31   ar
    32    31    32   ar
    33    32    33   ar
    34     8    11    1
    35    25    28    1
#	Name:			ZINC22585412
#	Creating user name:	trannguyen
#	Creation time:		Wed Dec  7 14:36:20 2022


#	Modifying user name:	trannguyen
#	Modification time:	Wed Dec  7 14:36:20 2022

@<TRIPOS>MOLECULE
ZINC22585412
 44 48 0 0 0
SMALL
GASTEIGER

@<TRIPOS>ATOM
      1 N          16.7884  -27.9577   18.6802 N.4     1  UNL1        0.2850
      2 C          17.1473  -27.3164   19.9528 C.3     1  UNL1        0.1674
      3 C          18.5312  -27.8003   20.3924 C.3     1  UNL1        0.1674
      4 N          19.5141  -27.4789   19.3484 N.4     1  UNL1        0.2850
      5 C          19.1553  -28.1203   18.0758 C.3     1  UNL1        0.1674
      6 C          17.7715  -27.6364   17.6362 C.3     1  UNL1        0.1674
      7 H          16.7991  -28.9677   18.8226 H       1  UNL1        0.2072
      8 H          19.5033  -26.4690   19.2060 H       1  UNL1        0.2072
      9 C          15.4328  -27.5762   18.2623 C.3     1  UNL1        0.1073
     10 C          14.7693  -28.7542   17.5462 C.3     1  UNL1        0.0797
     11 C          13.7010  -28.2302   16.5844 C.3     1  UNL1        0.0976
     12 N          13.9065  -26.7971   16.3602 N.3     1  UNL1       -0.1792
     13 H          13.2430  -26.3071   16.9602 H       1  UNL1        0.1488
     14 S          13.7342  -26.1638   14.8397 S.O2    1  UNL1        0.0602
     15 O          12.7649  -25.1295   14.9379 O.2     1  UNL1       -0.1530
     16 O          13.5851  -27.2661   13.9554 O.2     1  UNL1       -0.1530
     17 C          19.1631  -23.2607   12.1727 C.ar    1  UNL1        0.0000
     18 C          18.2534  -23.5722   11.1638 C.ar    1  UNL1        0.0000
     19 C          17.0688  -24.1775   11.4508 C.ar    1  UNL1        0.0000
     20 C          16.7502  -24.4847   12.7847 C.ar    1  UNL1        0.0013
     21 C          15.5344  -25.1045   13.1205 C.ar    1  UNL1        0.0199
     22 C          15.2597  -25.3867   14.4231 C.ar    1  UNL1        0.1219
     23 C          16.1667  -25.0696   15.4328 C.ar    1  UNL1        0.0199
     24 C          17.3536  -24.4692   15.1453 C.ar    1  UNL1        0.0014
     25 C          17.6727  -24.1627   13.8113 C.ar    1  UNL1        0.0001
     26 C          18.8884  -23.5428   13.4755 C.ar    1  UNL1        0.0000
     27 C          20.8697  -27.8605   19.7664 C.3     1  UNL1        0.1073
     28 C          21.8856  -26.9064   19.1351 C.3     1  UNL1        0.0797
     29 C          21.6421  -25.4871   19.6522 C.3     1  UNL1        0.0976
     30 N          21.8046  -24.5324   18.5530 N.3     1  UNL1       -0.1792
     31 H          22.6413  -24.8122   18.0412 H       1  UNL1        0.1488
     32 S          20.5990  -24.3462   17.4330 S.O2    1  UNL1        0.0602
     33 O          20.9886  -25.0937   16.2890 O.2     1  UNL1       -0.1530
     34 O          19.3733  -24.5781   18.1134 O.2     1  UNL1       -0.1530
     35 C          20.5941  -22.6518   16.9498 C.ar    1  UNL1        0.1219
     36 C          20.1422  -21.6839   17.8452 C.ar    1  UNL1        0.0199
     37 C          20.1304  -20.3662   17.5055 C.ar    1  UNL1        0.0014
     38 C          20.5689  -19.9730   16.2294 C.ar    1  UNL1        0.0001
     39 C          20.5651  -18.6226   15.8404 C.ar    1  UNL1        0.0000
     40 C          20.9968  -18.2791   14.5963 C.ar    1  UNL1        0.0000
     41 C          21.4441  -19.2474   13.6991 C.ar    1  UNL1        0.0000
     42 C          21.4616  -20.5645   14.0409 C.ar    1  UNL1        0.0000
     43 C          21.0233  -20.9577   15.3170 C.ar    1  UNL1        0.0013
     44 C          21.0263  -22.3082   15.7059 C.ar    1  UNL1        0.0199
@<TRIPOS>UNITY_ATOM_ATTR
1 1
charge 1
4 1
charge 1
@<TRIPOS>BOND
     1    17    26   ar
     2    17    18   ar
     3    18    19   ar
     4    19    20   ar
     5    20    25   ar
     6    20    21   ar
     7    21    22   ar
     8    22    23   ar
     9    22    14    1
    10    23    24   ar
    11    24    25   ar
    12    25    26   ar
    13    14    15    2
    14    14    16    2
    15    14    12    1
    16    12    11    1
    17    11    10    1
    18    10     9    1
    19     9     1    1
    20     1     6    1
    21     1     2    1
    22     2     3    1
    23     3     4    1
    24     4     5    1
    25     4    27    1
    26     5     6    1
    27    27    28    1
    28    28    29    1
    29    29    30    1
    30    30    32    1
    31    32    33    2
    32    32    34    2
    33    32    35    1
    34    35    44   ar
    35    35    36   ar
    36    36    37   ar
    37    37    38   ar
    38    38    43   ar
    39    38    39   ar
    40    39    40   ar
    41    40    41   ar
    42    41    42   ar
    43    42    43   ar
    44    43    44   ar
    45    12    13    1
    46     1     7    1
    47     4     8    1
    48    30    31    1
#	Name:			ZINC22623732
#	Creating user name:	trannguyen
#	Creation time:		Wed Dec  7 14:36:19 2022


#	Modifying user name:	trannguyen
#	Modification time:	Wed Dec  7 14:36:19 2022

@<TRIPOS>MOLECULE
ZINC22623732
 37 39 0 0 0
SMALL
GASTEIGER

@<TRIPOS>ATOM
      1 C          14.8412  -26.0260   14.0488 C.3     1  UNL1        0.2927
      2 C          15.6837  -24.7913   13.8571 C.2     1  UNL1        0.2672
      3 O          15.1527  -23.7216   13.6456 O.2     1  UNL1       -0.2711
      4 N          17.0273  -24.8759   13.9205 N.am    1  UNL1       -0.3010
      5 H          17.4583  -25.7442   14.0922 H       1  UNL1        0.1496
      6 C          17.8464  -23.6757   13.7340 C.3     1  UNL1        0.0942
      7 C          19.1414  -23.8122   14.5372 C.3     1  UNL1        0.0476
      8 C          19.7314  -22.4460   14.7752 C.ar    1  UNL1       -0.0204
      9 C          20.0000  -21.6132   13.7051 C.ar    1  UNL1       -0.0028
     10 C          20.5370  -20.3583   13.9236 C.ar    1  UNL1        0.0196
     11 C          20.8139  -19.9397   15.2117 C.ar    1  UNL1        0.1217
     12 C          20.5502  -20.7746   16.2814 C.ar    1  UNL1        0.0196
     13 C          20.0091  -22.0278   16.0632 C.ar    1  UNL1       -0.0028
     14 S          21.5026  -18.3419   15.4899 S.O2    1  UNL1        0.0572
     15 O          20.4179  -17.4830   15.8138 O.2     1  UNL1       -0.1532
     16 O          22.6146  -18.5242   16.3555 O.2     1  UNL1       -0.1532
     17 N          22.1104  -17.8120   14.0436 N.3     1  UNL1       -0.2035
     18 H          21.3446  -17.6663   13.3858 H       1  UNL1        0.1442
     19 H          22.7526  -18.5101   13.6684 H       1  UNL1        0.1442
     20 O          14.1094  -25.9232   15.2988 O.3     1  UNL1       -0.4353
     21 C          12.7813  -25.7102   15.2146 C.2     1  UNL1        0.3437
     22 O          12.3532  -24.5779   15.1058 O.2     1  UNL1       -0.2448
     23 C          11.7510  -27.6555   16.4028 C.ar    1  UNL1        0.1169
     24 C          11.8489  -26.8492   15.2542 C.ar    1  UNL1        0.0994
     25 C          11.0471  -27.1531   14.1474 C.ar    1  UNL1        0.0101
     26 C          10.1838  -28.2306   14.2371 C.ar    1  UNL1        0.0209
     27 C          10.1437  -28.9772   15.4017 C.ar    1  UNL1        0.0994
     28 N          10.9102  -28.6788   16.4320 N.ar    1  UNL1       -0.2371
     29 S          12.7513  -27.3022   17.8097 S.3     1  UNL1       -0.0681
     30 C           8.7761  -28.3901   22.2198 C.3     1  UNL1        0.0310
     31 C           9.7689  -28.1183   21.1191 C.ar    1  UNL1       -0.0221
     32 C           9.7326  -26.9144   20.4390 C.ar    1  UNL1       -0.0038
     33 C          10.6401  -26.6624   19.4294 C.ar    1  UNL1        0.0059
     34 C          11.5911  -27.6196   19.0973 C.ar    1  UNL1        0.0269
     35 C          11.6214  -28.8297   19.7790 C.ar    1  UNL1       -0.0161
     36 C          10.7139  -29.0731   20.7913 C.ar    1  UNL1       -0.0080
     37 C          12.6469  -29.8733   19.4182 C.3     1  UNL1        0.0315
@<TRIPOS>BOND
     1    30    31    1
     2    31    36   ar
     3    31    32   ar
     4    32    33   ar
     5    33    34   ar
     6    34    35   ar
     7    34    29    1
     8    35    36   ar
     9    35    37    1
    10    29    23    1
    11    23    28   ar
    12    23    24   ar
    13    24    25   ar
    14    24    21    1
    15    25    26   ar
    16    26    27   ar
    17    27    28   ar
    18    21    22    2
    19    21    20    1
    20    20     1    1
    21     1     2    1
    22     2     3    2
    23     2     4   am
    24     4     6    1
    25     6     7    1
    26     7     8    1
    27     8    13   ar
    28     8     9   ar
    29     9    10   ar
    30    10    11   ar
    31    11    12   ar
    32    11    14    1
    33    12    13   ar
    34    14    15    2
    35    14    16    2
    36    14    17    1
    37     4     5    1
    38    17    18    1
    39    17    19    1
#	Name:			ZINC22678052
#	Creating user name:	trannguyen
#	Creation time:		Wed Dec  7 14:36:20 2022


#	Modifying user name:	trannguyen
#	Modification time:	Wed Dec  7 14:36:20 2022

@<TRIPOS>MOLECULE
ZINC22678052
 38 40 0 0 0
SMALL
GASTEIGER

@<TRIPOS>ATOM
      1 C          20.2995  -20.8252   17.0476 C.3     1  UNL1        0.2927
      2 N          21.1168  -23.1388   17.3607 N.am    1  UNL1       -0.2809
      3 C          20.1060  -22.2556   17.4808 C.2     1  UNL1        0.2708
      4 O          19.0403  -22.6119   17.9377 O.2     1  UNL1       -0.2707
      5 H          21.9536  -22.8717   16.9161 H       1  UNL1        0.1550
      6 C          20.6999  -27.0026   18.8720 C.ar    1  UNL1        0.1454
      7 C          21.3220  -26.0235   19.6334 C.ar    1  UNL1        0.0388
      8 C          21.4602  -24.7439   19.1335 C.ar    1  UNL1        0.0178
      9 C          20.9767  -24.4370   17.8685 C.ar    1  UNL1        0.0506
     10 C          20.3492  -25.4157   17.1093 C.ar    1  UNL1        0.0178
     11 C          20.2170  -26.6966   17.6078 C.ar    1  UNL1        0.0388
     12 O          20.5640  -28.2623   19.3649 O.3     1  UNL1       -0.4535
     13 C          24.9153  -31.7977   18.8264 C.3     1  UNL1        0.0310
     14 C          23.7510  -30.8517   18.9705 C.ar    1  UNL1       -0.0217
     15 C          23.4526  -30.3079   20.2062 C.ar    1  UNL1       -0.0011
     16 C          22.3859  -29.4406   20.3410 C.ar    1  UNL1        0.0372
     17 C          21.6140  -29.1149   19.2348 C.ar    1  UNL1        0.1453
     18 C          21.9128  -29.6658   17.9968 C.ar    1  UNL1        0.0372
     19 C          22.9835  -30.5288   17.8666 C.ar    1  UNL1       -0.0011
     20 O          21.6356  -20.6608   16.5034 O.3     1  UNL1       -0.4377
     21 C          21.8176  -19.6612   15.6264 C.2     1  UNL1        0.3289
     22 O          22.7544  -18.9088   15.7537 O.2     1  UNL1       -0.2491
     23 C          20.8570  -19.4809   14.4793 C.3     1  UNL1        0.1715
     24 S          21.3830  -20.5118   13.0824 S.3     1  UNL1       -0.1002
     25 C          20.4328  -21.9852   13.2584 C.ar    1  UNL1        0.0482
     26 C          19.0611  -21.9607   13.0174 C.ar    1  UNL1        0.0080
     27 C          18.3197  -23.0994   13.1522 C.ar    1  UNL1        0.0051
     28 C          18.9359  -24.2955   13.5332 C.ar    1  UNL1        0.0548
     29 C          20.3128  -24.3231   13.7758 C.ar    1  UNL1        0.0291
     30 C          21.0558  -23.1736   13.6328 C.ar    1  UNL1        0.1486
     31 C          18.1352  -25.5254   13.6793 C.2     1  UNL1        0.2428
     32 O          16.9346  -25.4517   13.8577 O.2     1  UNL1       -0.2704
     33 N          18.7342  -26.7310   13.6151 N.am    1  UNL1       -0.3253
     34 H          19.7062  -26.7907   13.4708 H       1  UNL1        0.1453
     35 H          18.1996  -27.5520   13.7126 H       1  UNL1        0.1453
     36 N          22.5146  -23.1985   13.8826 N.pl3   1  UNL1        0.0582
     37 O          23.2929  -23.1916   12.9458 O.2     1  UNL1       -0.1261
     38 O          22.9365  -23.2258   15.0248 O.2     1  UNL1       -0.1261
@<TRIPOS>BOND
     1    13    14    1
     2    14    19   ar
     3    14    15   ar
     4    15    16   ar
     5    16    17   ar
     6    17    18   ar
     7    17    12    1
     8    18    19   ar
     9    12     6    1
    10     6    11   ar
    11     6     7   ar
    12     7     8   ar
    13     8     9   ar
    14     9    10   ar
    15     9     2    1
    16    10    11   ar
    17     2     3   am
    18     3     4    2
    19     3     1    1
    20     1    20    1
    21    20    21    1
    22    21    22    2
    23    21    23    1
    24    23    24    1
    25    24    25    1
    26    25    30   ar
    27    25    26   ar
    28    26    27   ar
    29    27    28   ar
    30    28    29   ar
    31    28    31    1
    32    29    30   ar
    33    30    36    1
    34    36    37    2
    35    36    38    2
    36    31    32    2
    37    31    33   am
    38     2     5    1
    39    33    34    1
    40    33    35    1
#	Name:			ZINC22834799
#	Creating user name:	trannguyen
#	Creation time:		Wed Dec  7 14:36:20 2022


#	Modifying user name:	trannguyen
#	Modification time:	Wed Dec  7 14:36:20 2022

@<TRIPOS>MOLECULE
ZINC22834799
 39 42 0 0 0
SMALL
GASTEIGER

@<TRIPOS>ATOM
      1 C          19.8288  -24.9218   16.6033 C.3     1  UNL1        0.1504
      2 C          18.9823  -24.5986   17.8075 C.ar    1  UNL1       -0.0035
      3 C          17.6136  -24.4595   17.6731 C.ar    1  UNL1       -0.0030
      4 C          16.8366  -24.1674   18.7785 C.ar    1  UNL1       -0.0003
      5 C          17.4296  -24.0051   20.0167 C.ar    1  UNL1       -0.0000
      6 C          18.7989  -24.1395   20.1502 C.ar    1  UNL1       -0.0003
      7 C          19.5753  -24.4358   19.0456 C.ar    1  UNL1       -0.0030
      8 N          19.6232  -22.7005   15.5344 N.am    1  UNL1       -0.2832
      9 C          20.4249  -23.6518   16.0530 C.2     1  UNL1        0.2403
     10 O          21.6261  -23.4856   16.0768 O.2     1  UNL1       -0.2735
     11 H          18.6452  -22.8069   15.5720 H       1  UNL1        0.1549
     12 C          19.8944  -22.6591   12.7061 C.3     1  UNL1        0.0323
     13 C          20.3319  -21.4990   13.5625 C.ar    1  UNL1       -0.0084
     14 C          20.8815  -20.3758   12.9726 C.ar    1  UNL1       -0.0030
     15 C          21.2841  -19.3095   13.7500 C.ar    1  UNL1        0.0009
     16 C          21.1373  -19.3625   15.1379 C.ar    1  UNL1        0.0152
     17 C          20.5778  -20.4938   15.7325 C.ar    1  UNL1        0.0155
     18 C          20.1810  -21.5616   14.9425 C.ar    1  UNL1        0.0463
     19 C          21.5675  -18.2222   15.9730 C.2     1  UNL1        0.0729
     20 O          20.7995  -17.3074   16.1939 O.co2   1  UNL1       -0.5446
     21 O          22.8114  -18.1970   16.4893 O.co2   1  UNL1       -0.5446
     22 S          18.7984  -25.7062   15.3329 S.3     1  UNL1       -0.1008
     23 C          19.9405  -26.6539   14.3831 C.ar    1  UNL1        0.0260
     24 C          20.4362  -27.8512   14.8844 C.ar    1  UNL1        0.0074
     25 C          21.3262  -28.5963   14.1373 C.ar    1  UNL1        0.0152
     26 C          21.7353  -28.1435   12.8899 C.ar    1  UNL1        0.0503
     27 C          21.2451  -26.9439   12.3911 C.ar    1  UNL1        0.0152
     28 C          20.3503  -26.2012   13.1349 C.ar    1  UNL1        0.0074
     29 N          22.6431  -28.8977   12.1341 N.am    1  UNL1       -0.2836
     30 C          22.2035  -29.9285   11.3852 C.2     1  UNL1        0.2305
     31 O          21.0364  -30.2557   11.4292 O.2     1  UNL1       -0.2744
     32 H          23.6018  -28.6747   12.1501 H       1  UNL1        0.1549
     33 C          23.1622  -30.6746   10.4933 C.3     1  UNL1        0.1116
     34 C          24.1552  -29.7070    9.9026 C.ar    1  UNL1       -0.0131
     35 C          25.4277  -29.6119   10.4341 C.ar    1  UNL1       -0.0038
     36 C          26.3402  -28.7281    9.8890 C.ar    1  UNL1       -0.0003
     37 C          25.9766  -27.9316    8.8192 C.ar    1  UNL1       -0.0000
     38 C          24.7023  -28.0226    8.2913 C.ar    1  UNL1       -0.0003
     39 C          23.7916  -28.9105    8.8329 C.ar    1  UNL1       -0.0038
@<TRIPOS>UNITY_ATOM_ATTR
21 1
charge -1
@<TRIPOS>BOND
     1    12    13    1
     2    13    18   ar
     3    13    14   ar
     4    14    15   ar
     5    15    16   ar
     6    16    17   ar
     7    16    19    1
     8    17    18   ar
     9    18     8    1
    10     8     9   am
    11     9    10    2
    12     9     1    1
    13     1     2    1
    14     1    22    1
    15     2     7   ar
    16     2     3   ar
    17     3     4   ar
    18     4     5   ar
    19     5     6   ar
    20     6     7   ar
    21    22    23    1
    22    23    28   ar
    23    23    24   ar
    24    24    25   ar
    25    25    26   ar
    26    26    27   ar
    27    26    29    1
    28    27    28   ar
    29    29    30   am
    30    30    31    2
    31    30    33    1
    32    33    34    1
    33    34    39   ar
    34    34    35   ar
    35    35    36   ar
    36    36    37   ar
    37    37    38   ar
    38    38    39   ar
    39    19    20   ar
    40    19    21   ar
    41     8    11    1
    42    29    32    1
#	Name:			ZINC22902141
#	Creating user name:	trannguyen
#	Creation time:		Wed Dec  7 14:36:20 2022


#	Modifying user name:	trannguyen
#	Modification time:	Wed Dec  7 14:36:20 2022

@<TRIPOS>MOLECULE
ZINC22902141
 35 37 0 0 0
SMALL
GASTEIGER

@<TRIPOS>ATOM
      1 C          16.5551  -25.8755   18.5490 C.ar    1  UNL1        0.0509
      2 C          16.8991  -26.1290   19.8719 C.ar    1  UNL1        0.0147
      3 C          17.9346  -25.4339   20.4678 C.ar    1  UNL1        0.0019
      4 C          18.6272  -24.4749   19.7573 C.ar    1  UNL1        0.0083
      5 C          18.2859  -24.2080   18.4287 C.ar    1  UNL1        0.0432
      6 C          17.2434  -24.9149   17.8258 C.ar    1  UNL1        0.0229
      7 C          15.7702  -27.7154   17.2606 C.2     1  UNL1        0.2278
      8 O          16.9175  -28.0698   17.0889 O.2     1  UNL1       -0.2747
      9 N          15.5095  -26.5867   17.9495 N.am    1  UNL1       -0.2839
     10 H          14.5835  -26.2626   18.0309 H       1  UNL1        0.1549
     11 C          14.6365  -28.5373   16.7036 C.3     1  UNL1        0.1066
     12 C          14.3055  -28.0573   15.2892 C.3     1  UNL1        0.0993
     13 C          15.0855  -25.8846   14.5091 C.2     1  UNL1        0.2458
     14 O          13.9500  -25.4673   14.6272 O.2     1  UNL1       -0.2701
     15 N          15.3676  -27.1666   14.8146 N.am    1  UNL1       -0.3004
     16 H          16.2873  -27.5046   14.7189 H       1  UNL1        0.1498
     17 C          19.9377  -24.9065   13.8766 C.3     1  UNL1        0.0310
     18 C          18.4917  -24.5108   13.7239 C.ar    1  UNL1       -0.0217
     19 C          18.1652  -23.3026   13.1337 C.ar    1  UNL1       -0.0043
     20 C          16.8401  -22.9343   12.9846 C.ar    1  UNL1       -0.0002
     21 C          15.8348  -23.7686   13.4289 C.ar    1  UNL1        0.0045
     22 C          16.1574  -24.9859   14.0302 C.ar    1  UNL1        0.0530
     23 C          17.4966  -25.3513   14.1780 C.ar    1  UNL1        0.0003
     24 C          19.0023  -23.2132   17.6885 C.1     1  UNL1       -0.0597
     25 C          19.5895  -22.3977   17.0816 C.1     1  UNL1       -0.0597
     26 C          20.3059  -21.4029   16.3414 C.ar    1  UNL1        0.0422
     27 C          20.7186  -20.2235   16.9696 C.ar    1  UNL1        0.0083
     28 C          21.4095  -19.2642   16.2574 C.ar    1  UNL1        0.0008
     29 C          21.6982  -19.4609   14.9212 C.ar    1  UNL1        0.0065
     30 C          21.2922  -20.6340   14.2804 C.ar    1  UNL1        0.0763
     31 C          20.5987  -21.6100   14.9938 C.ar    1  UNL1        0.0147
     32 C          21.6026  -20.8423   12.8509 C.2     1  UNL1        0.3413
     33 O          21.5388  -19.9111   12.0736 O.2     1  UNL1       -0.2449
     34 O          21.9562  -22.0650   12.4097 O.3     1  UNL1       -0.4413
     35 C          23.2051  -22.6107   12.9106 C.3     1  UNL1        0.2560
@<TRIPOS>BOND
     1    17    18    1
     2    18    23   ar
     3    18    19   ar
     4    19    20   ar
     5    20    21   ar
     6    21    22   ar
     7    22    23   ar
     8    22    13    1
     9    13    14    2
    10    13    15   am
    11    15    12    1
    12    12    11    1
    13    11     7    1
    14     7     8    2
    15     7     9   am
    16     9     1    1
    17     1     6   ar
    18     1     2   ar
    19     2     3   ar
    20     3     4   ar
    21     4     5   ar
    22     5     6   ar
    23     5    24    1
    24    24    25    3
    25    25    26    1
    26    26    31   ar
    27    26    27   ar
    28    27    28   ar
    29    28    29   ar
    30    29    30   ar
    31    30    31   ar
    32    30    32    1
    33    32    33    2
    34    32    34    1
    35    34    35    1
    36    15    16    1
    37     9    10    1
#	Name:			ZINC23050247
#	Creating user name:	trannguyen
#	Creation time:		Wed Dec  7 14:36:19 2022


#	Modifying user name:	trannguyen
#	Modification time:	Wed Dec  7 14:36:19 2022

@<TRIPOS>MOLECULE
ZINC23050247
 32 33 0 0 0
SMALL
GASTEIGER

@<TRIPOS>ATOM
      1 C          21.2723  -25.7845   19.8386 C.3     1  UNL1        0.2940
      2 N          21.1161  -24.6252   17.6591 N.am    1  UNL1       -0.2306
      3 C          21.5987  -24.6374   18.9174 C.2     1  UNL1        0.2826
      4 O          22.2958  -23.7251   19.3084 O.2     1  UNL1       -0.2695
      5 H          20.5502  -25.3658   17.3417 H       1  UNL1        0.1729
      6 C          20.5285  -22.5635   16.6238 C.2     1  UNL1        0.2614
      7 O          19.4595  -22.5938   17.2015 O.2     1  UNL1       -0.2686
      8 N          21.4196  -23.5588   16.8027 N.am    1  UNL1       -0.2302
      9 H          22.2837  -23.5363   16.3315 H       1  UNL1        0.1731
     10 C          21.7866  -18.1709   13.1255 C.3     1  UNL1        0.0310
     11 C          21.4571  -19.3213   14.0416 C.ar    1  UNL1       -0.0218
     12 C          20.9766  -19.0719   15.3148 C.ar    1  UNL1       -0.0041
     13 C          20.6730  -20.1204   16.1584 C.ar    1  UNL1        0.0042
     14 C          20.8513  -21.4350   15.7249 C.ar    1  UNL1        0.0548
     15 C          21.3411  -21.6796   14.4409 C.ar    1  UNL1        0.0042
     16 C          21.6361  -20.6221   13.6055 C.ar    1  UNL1       -0.0041
     17 O          19.9492  -25.5900   20.4039 O.3     1  UNL1       -0.4359
     18 C          18.9228  -26.1776   19.7691 C.2     1  UNL1        0.3580
     19 O          18.8286  -27.3822   19.7590 O.2     1  UNL1       -0.2461
     20 C          17.8878  -25.3350   19.0692 C.3     1  UNL1        0.2634
     21 C          16.8255  -24.8908   20.0766 C.3     1  UNL1        0.0596
     22 O          17.2707  -26.1018   18.0332 O.3     1  UNL1       -0.4679
     23 C          17.3031  -25.5817   16.7780 C.ar    1  UNL1        0.1392
     24 C          16.1685  -24.9906   16.2414 C.ar    1  UNL1        0.0366
     25 C          16.2058  -24.4571   14.9676 C.ar    1  UNL1       -0.0012
     26 C          17.3689  -24.5229   14.2231 C.ar    1  UNL1       -0.0226
     27 C          18.4994  -25.1166   14.7535 C.ar    1  UNL1       -0.0012
     28 C          18.4691  -25.6460   16.0291 C.ar    1  UNL1        0.0366
     29 C          17.4048  -23.9462   12.8313 C.3     1  UNL1        0.0189
     30 C          18.2561  -22.6749   12.8278 C.3     1  UNL1        0.0044
     31 C          18.0130  -24.9699   11.8706 C.3     1  UNL1        0.0044
     32 C          15.9817  -23.6082   12.3824 C.3     1  UNL1        0.0044
@<TRIPOS>BOND
     1    10    11    1
     2    11    16   ar
     3    11    12   ar
     4    12    13   ar
     5    13    14   ar
     6    14    15   ar
     7    14     6    1
     8    15    16   ar
     9     6     7    2
    10     6     8   am
    11     8     2    1
    12     2     3   am
    13     3     4    2
    14     3     1    1
    15     1    17    1
    16    17    18    1
    17    18    19    2
    18    18    20    1
    19    20    21    1
    20    20    22    1
    21    22    23    1
    22    23    28   ar
    23    23    24   ar
    24    24    25   ar
    25    25    26   ar
    26    26    27   ar
    27    26    29    1
    28    27    28   ar
    29    29    30    1
    30    29    31    1
    31    29    32    1
    32     8     9    1
    33     2     5    1
#	Name:			ZINC23058892
#	Creating user name:	trannguyen
#	Creation time:		Wed Dec  7 14:36:19 2022


#	Modifying user name:	trannguyen
#	Modification time:	Wed Dec  7 14:36:19 2022

@<TRIPOS>MOLECULE
ZINC23058892
 37 39 0 0 0
SMALL
GASTEIGER

@<TRIPOS>ATOM
      1 C          19.0113  -26.8548   16.2519 C.3     1  UNL1        0.2353
      2 N          21.3903  -20.8424   17.2352 N.am    1  UNL1       -0.1423
      3 C          20.8990  -22.0575   16.7566 C.ar    1  UNL1        0.0797
      4 C          20.5400  -23.0614   17.6562 C.ar    1  UNL1        0.0169
      5 C          20.0581  -24.2547   17.2034 C.ar    1  UNL1        0.0042
      6 C          19.9177  -24.4715   15.8275 C.ar    1  UNL1        0.0345
      7 C          19.4096  -25.7450   15.3134 C.ar    1  UNL1        0.0305
      8 C          19.3016  -25.8968   13.9676 C.ar    1  UNL1        0.0772
      9 C          19.6804  -24.8434   13.1104 C.ar    1  UNL1        0.2931
     10 O          19.5785  -24.9926   11.9060 O.3     1  UNL1       -0.4795
     11 O          20.1507  -23.6804   13.5878 O.2     1  UNL1       -0.4238
     12 C          20.2828  -23.4648   14.9143 C.ar    1  UNL1        0.1497
     13 C          20.7709  -22.2577   15.3906 C.ar    1  UNL1        0.0543
     14 H          19.2516  -25.7996   11.5600 H       1  UNL1        0.2953
     15 C          21.1192  -19.6990   16.5752 C.2     1  UNL1        0.4254
     16 O          20.0365  -19.1634   16.7070 O.2     1  UNL1       -0.2242
     17 O          22.0481  -19.1502   15.7697 O.3     1  UNL1       -0.4333
     18 C          21.4791  -19.1976   13.4024 C.3     1  UNL1        0.0513
     19 C          21.5671  -18.3390   14.6657 C.3     1  UNL1        0.2103
     20 O          17.6854  -26.5890   16.7806 O.3     1  UNL1       -0.4434
     21 C          16.6640  -27.2663   16.2331 C.2     1  UNL1        0.3193
     22 O          16.8761  -28.0890   15.3741 O.2     1  UNL1       -0.2500
     23 C          15.2521  -26.9962   16.6855 C.3     1  UNL1        0.1336
     24 C          14.5999  -25.9821   15.7436 C.3     1  UNL1        0.1052
     25 C          13.5508  -26.6726   14.9107 C.ar    1  UNL1       -0.0038
     26 C          13.9248  -27.4123   13.8040 C.ar    1  UNL1        0.0004
     27 C          12.9654  -28.0507   13.0422 C.ar    1  UNL1        0.0366
     28 C          11.6249  -27.9397   13.3816 C.ar    1  UNL1        0.1387
     29 C          11.2517  -27.1922   14.4893 C.ar    1  UNL1        0.0366
     30 C          12.2154  -26.5607   15.2514 C.ar    1  UNL1        0.0004
     31 O          10.6786  -28.5615   12.6300 O.3     1  UNL1       -0.4714
     32 C           9.3148  -28.3562   13.0043 C.3     1  UNL1        0.2525
     33 N          15.6203  -25.4061   14.8642 N.am    1  UNL1       -0.3016
     34 C          15.4081  -24.2111   14.2783 C.2     1  UNL1        0.2232
     35 O          14.4105  -23.5743   14.5433 O.2     1  UNL1       -0.2751
     36 C          16.4104  -23.6661   13.2936 C.3     1  UNL1        0.0946
     37 H          16.4610  -25.8919   14.7013 H       1  UNL1        0.1497
@<TRIPOS>BOND
     1    18    19    1
     2    19    17    1
     3    17    15    1
     4    15    16    2
     5    15     2    1
     6     2     3    2
     7     3    13   ar
     8     3     4   ar
     9     4     5   ar
    10     5     6   ar
    11     6    12    1
    12     6     7   ar
    13     7     8   ar
    14     7     1    1
    15     8     9   ar
    16     9    10    1
    17     9    11   ar
    18    11    12   ar
    19    12    13   ar
    20     1    20    1
    21    20    21    1
    22    21    22    2
    23    21    23    1
    24    23    24    1
    25    24    25    1
    26    24    33    1
    27    25    30   ar
    28    25    26   ar
    29    26    27   ar
    30    27    28   ar
    31    28    29   ar
    32    28    31    1
    33    29    30   ar
    34    31    32    1
    35    33    34   am
    36    34    35    2
    37    34    36    1
    38    10    14    1
    39    33    37    1
#	Name:			ZINC23140308
#	Creating user name:	trannguyen
#	Creation time:		Wed Dec  7 14:36:20 2022


#	Modifying user name:	trannguyen
#	Modification time:	Wed Dec  7 14:36:20 2022

@<TRIPOS>MOLECULE
ZINC23140308
 33 34 0 0 0
SMALL
GASTEIGER

@<TRIPOS>ATOM
      1 N          18.8589  -24.8117   18.2329 N.am    1  UNL1       -0.2931
      2 C          17.6009  -24.8151   18.7167 C.2     1  UNL1        0.2463
      3 O          17.3598  -24.2921   19.7893 O.2     1  UNL1       -0.2701
      4 H          19.0538  -25.2346   17.3655 H       1  UNL1        0.1502
      5 C          16.5581  -25.4278   17.9762 C.2     1  UNL1        0.0578
      6 C          16.6091  -25.4465   16.6257 C.2     1  UNL1        0.0077
      7 C          15.5302  -26.0805   15.8594 C.ar    1  UNL1        0.0345
      8 C          14.6029  -26.9091   16.5034 C.ar    1  UNL1        0.0061
      9 C          13.5968  -27.4941   15.7895 C.ar    1  UNL1        0.0373
     10 C          13.4909  -27.2814   14.4181 C.ar    1  UNL1        0.1473
     11 C          14.4041  -26.4678   13.7628 C.ar    1  UNL1        0.0741
     12 C          15.4260  -25.8638   14.4746 C.ar    1  UNL1        0.1472
     13 O          16.3221  -25.0674   13.8392 O.3     1  UNL1       -0.4235
     14 C          15.8434  -23.8123   13.3520 C.3     1  UNL1        0.5087
     15 F          14.8842  -23.3045   14.2347 F       1  UNL1       -0.1550
     16 F          16.9101  -22.9123   13.2544 F       1  UNL1       -0.1550
     17 O          12.4897  -27.8733   13.7181 O.3     1  UNL1       -0.4235
     18 C          11.1612  -27.4103   13.9688 C.3     1  UNL1        0.5087
     19 F          11.1856  -26.0329   14.2124 F       1  UNL1       -0.1550
     20 F          10.3579  -27.6726   12.8539 F       1  UNL1       -0.1550
     21 C          19.9361  -24.1789   18.9978 C.3     1  UNL1        0.1762
     22 N          19.5697  -22.3283   17.3978 N.am    1  UNL1       -0.2828
     23 C          20.3824  -22.9238   18.2930 C.2     1  UNL1        0.2462
     24 O          21.4729  -22.4496   18.5314 O.2     1  UNL1       -0.2729
     25 H          18.6543  -22.6651   17.2636 H       1  UNL1        0.1549
     26 C          21.3967  -20.5112   13.2108 C.3     1  UNL1        0.0307
     27 C          20.9184  -20.3221   14.6273 C.ar    1  UNL1       -0.0246
     28 C          20.9312  -19.0626   15.1984 C.ar    1  UNL1       -0.0045
     29 C          20.4937  -18.8849   16.4979 C.ar    1  UNL1        0.0009
     30 C          20.0413  -19.9657   17.2297 C.ar    1  UNL1        0.0143
     31 C          20.0268  -21.2315   16.6591 C.ar    1  UNL1        0.0460
     32 C          20.4675  -21.4066   15.3535 C.ar    1  UNL1       -0.0123
     33 C          20.4529  -22.7785   14.7301 C.3     1  UNL1        0.0320
@<TRIPOS>BOND
     1    26    27    1
     2    27    32   ar
     3    27    28   ar
     4    28    29   ar
     5    29    30   ar
     6    30    31   ar
     7    31    32   ar
     8    31    22    1
     9    32    33    1
    10    22    23   am
    11    23    24    2
    12    23    21    1
    13    21     1    1
    14     1     2   am
    15     2     3    2
    16     2     5    1
    17     5     6    2
    18     6     7    1
    19     7    12   ar
    20     7     8   ar
    21     8     9   ar
    22     9    10   ar
    23    10    11   ar
    24    10    17    1
    25    11    12   ar
    26    12    13    1
    27    13    14    1
    28    14    15    1
    29    14    16    1
    30    17    18    1
    31    18    19    1
    32    18    20    1
    33    22    25    1
    34     1     4    1
#	Name:			ZINC23154646
#	Creating user name:	trannguyen
#	Creation time:		Wed Dec  7 14:36:20 2022


#	Modifying user name:	trannguyen
#	Modification time:	Wed Dec  7 14:36:20 2022

@<TRIPOS>MOLECULE
ZINC23154646
 35 37 0 0 0
SMALL
GASTEIGER

@<TRIPOS>ATOM
      1 N          19.7370  -27.9771   12.7260 N.am    1  UNL1       -0.2458
      2 H          19.0730  -28.2882   12.0690 H       1  UNL1        0.1718
      3 C          19.1703  -25.7130   13.1951 C.2     1  UNL1        0.2493
      4 O          18.0553  -26.0715   13.5097 O.2     1  UNL1       -0.2726
      5 N          20.0798  -26.6201   12.7868 N.am    1  UNL1       -0.2339
      6 H          20.9849  -26.3290   12.5312 H       1  UNL1        0.1728
      7 C          19.5391  -24.2532   13.2605 C.3     1  UNL1        0.1498
      8 S          21.2691  -24.0902   13.7674 S.3     1  UNL1       -0.0850
      9 C          21.6358  -21.3676   12.7950 C.3     1  UNL1        0.0314
     10 C          21.4220  -20.8534   14.1954 C.ar    1  UNL1       -0.0159
     11 C          21.4695  -19.5372   14.4494 C.ar    1  UNL1        0.0052
     12 S          21.1632  -19.4403   16.2032 S.2     1  UNL1       -0.0726
     13 C          20.9797  -21.1700   16.5473 C.ar    1  UNL1        0.1138
     14 C          21.1681  -21.7775   15.2865 C.ar    1  UNL1        0.0436
     15 C          21.0641  -23.1963   15.2718 C.ar    1  UNL1        0.1105
     16 N          20.8168  -23.8369   16.4040 N.ar    1  UNL1       -0.2176
     17 C          20.6572  -23.2019   17.5508 C.ar    1  UNL1        0.1998
     18 N          20.7364  -21.8873   17.6266 N.ar    1  UNL1       -0.2173
     19 C          21.7217  -18.4090   13.4827 C.3     1  UNL1        0.0379
     20 C          20.3162  -28.8568   13.5670 C.2     1  UNL1        0.1473
     21 S          20.6814  -28.3921   15.1737 S.2     1  UNL1       -0.0174
     22 N          20.6081  -30.1024   13.1429 N.am    1  UNL1       -0.3147
     23 H          19.8878  -30.7624   13.0214 H       1  UNL1        0.1485
     24 C          21.9972  -30.4741   12.8628 C.3     1  UNL1        0.0931
     25 C          22.1519  -30.7832   11.3723 C.3     1  UNL1        0.0477
     26 C          22.8492  -29.6343   10.6908 C.ar    1  UNL1       -0.0173
     27 C          23.2346  -29.7482    9.3679 C.ar    1  UNL1       -0.0009
     28 C          23.8696  -28.6949    8.7367 C.ar    1  UNL1        0.0397
     29 C          24.1313  -27.5260    9.4331 C.ar    1  UNL1        0.1724
     30 C          23.7484  -27.4134   10.7661 C.ar    1  UNL1        0.1721
     31 C          23.1073  -28.4708   11.3913 C.ar    1  UNL1        0.0358
     32 O          24.0026  -26.2679   11.4538 O.3     1  UNL1       -0.4684
     33 C          25.1825  -26.2432   12.2597 C.3     1  UNL1        0.2526
     34 O          24.7604  -26.4907    8.8150 O.3     1  UNL1       -0.4684
     35 C          26.1854  -26.5554    8.7299 C.3     1  UNL1        0.2526
@<TRIPOS>BOND
     1     9    10    1
     2    10    14   ar
     3    10    11   ar
     4    11    12   ar
     5    11    19    1
     6    12    13   ar
     7    13    18   ar
     8    13    14   ar
     9    14    15   ar
    10    15    16   ar
    11    15     8    1
    12    16    17   ar
    13    17    18   ar
    14     8     7    1
    15     7     3    1
    16     3     4    2
    17     3     5   am
    18     5     1    1
    19     1    20    1
    20    20    21    2
    21    20    22    1
    22    22    24    1
    23    24    25    1
    24    25    26    1
    25    26    31   ar
    26    26    27   ar
    27    27    28   ar
    28    28    29   ar
    29    29    30   ar
    30    29    34    1
    31    30    31   ar
    32    30    32    1
    33    32    33    1
    34    34    35    1
    35     5     6    1
    36     1     2    1
    37    22    23    1
#	Name:			ZINC23208799
#	Creating user name:	trannguyen
#	Creation time:		Wed Dec  7 14:36:19 2022


#	Modifying user name:	trannguyen
#	Modification time:	Wed Dec  7 14:36:19 2022

@<TRIPOS>MOLECULE
ZINC23208799
 28 29 0 0 0
SMALL
GASTEIGER

@<TRIPOS>ATOM
      1 C          20.8104  -24.7869   18.5397 C.ar    1  UNL1        0.1610
      2 N          21.7448  -23.8582   18.6137 N.ar    1  UNL1       -0.1331
      3 N          21.4397  -22.5542   18.2991 N.ar    1  UNL1       -0.1249
      4 C          20.2152  -22.2383   17.9252 C.ar    1  UNL1        0.1865
      5 S          19.4009  -23.8260   18.0095 S.2     1  UNL1       -0.0242
      6 N          19.6954  -20.9995   17.5668 N.pl3   1  UNL1       -0.2913
      7 H          18.9448  -20.6150   18.0748 H       1  UNL1        0.1541
      8 C          20.2381  -20.3006   16.4857 C.ar    1  UNL1        0.0494
      9 C          20.4532  -18.9310   16.5792 C.ar    1  UNL1        0.0143
     10 C          20.9841  -18.2423   15.5068 C.ar    1  UNL1       -0.0033
     11 C          21.3129  -18.9161   14.3444 C.ar    1  UNL1       -0.0257
     12 C          21.1064  -20.2801   14.2502 C.ar    1  UNL1       -0.0246
     13 C          20.5699  -20.9742   15.3170 C.ar    1  UNL1        0.0101
     14 C          21.4666  -21.0100   12.9820 C.3     1  UNL1        0.0307
     15 C          21.8979  -18.1621   13.1782 C.3     1  UNL1        0.0307
     16 S          20.9213  -26.5122   18.8801 S.3     1  UNL1       -0.0782
     17 C          20.0040  -27.2875   17.5207 C.3     1  UNL1        0.1299
     18 C          20.0293  -28.8079   17.6902 C.3     1  UNL1        0.0218
     19 N          19.8903  -26.4235   15.2057 N.am    1  UNL1       -0.3036
     20 C          20.6444  -26.9178   16.2074 C.2     1  UNL1        0.2325
     21 O          21.8381  -27.0651   16.0521 O.2     1  UNL1       -0.2742
     22 H          18.9213  -26.3039   15.3318 H       1  UNL1        0.1495
     23 C          20.5127  -26.0642   13.9291 C.3     1  UNL1        0.0920
     24 C          20.5995  -24.5409   13.8148 C.3     1  UNL1        0.0533
     25 C          19.4444  -24.0275   12.9529 C.3     1  UNL1        0.1439
     26 O          18.4768  -25.0658   12.7856 O.3     1  UNL1       -0.3537
     27 C          16.4344  -24.3978   11.6797 C.3     1  UNL1        0.0346
     28 C          17.8126  -25.0430   11.5206 C.3     1  UNL1        0.1422
@<TRIPOS>BOND
     1    27    28    1
     2    28    26    1
     3    26    25    1
     4    25    24    1
     5    24    23    1
     6    23    19    1
     7    19    20   am
     8    20    21    2
     9    20    17    1
    10    17    18    1
    11    17    16    1
    12    16     1    1
    13     1     5   ar
    14     1     2   ar
    15     2     3   ar
    16     3     4   ar
    17     4     5   ar
    18     4     6    1
    19     6     8    1
    20     8    13   ar
    21     8     9   ar
    22     9    10   ar
    23    10    11   ar
    24    11    12   ar
    25    11    15    1
    26    12    13   ar
    27    12    14    1
    28    19    22    1
    29     6     7    1
#	Name:			ZINC23340020
#	Creating user name:	trannguyen
#	Creation time:		Wed Dec  7 14:36:19 2022


#	Modifying user name:	trannguyen
#	Modification time:	Wed Dec  7 14:36:19 2022

@<TRIPOS>MOLECULE
ZINC23340020
 36 39 0 0 0
SMALL
GASTEIGER

@<TRIPOS>ATOM
      1 C          16.0786  -24.9547   14.0051 C.ar    1  UNL1        0.0538
      2 C          16.2833  -24.5701   12.6771 C.ar    1  UNL1        0.0058
      3 C          17.5217  -24.1235   12.2747 C.ar    1  UNL1        0.0148
      4 C          18.5721  -24.0666   13.1853 C.ar    1  UNL1        0.0503
      5 C          18.3733  -24.4542   14.5066 C.ar    1  UNL1        0.0148
      6 C          17.1358  -24.8960   14.9173 C.ar    1  UNL1        0.0058
      7 N          14.4459  -26.7388   14.3725 N.am    1  UNL1       -0.2804
      8 C          14.7505  -25.4277   14.4417 C.2     1  UNL1        0.2495
      9 O          13.9312  -24.6345   14.8638 O.2     1  UNL1       -0.2698
     10 H          15.0825  -27.3714   13.9679 H       1  UNL1        0.1552
     11 C          10.8075  -28.1150   15.8724 C.ar    1  UNL1        0.1386
     12 C          11.8882  -27.9431   16.7249 C.ar    1  UNL1        0.0382
     13 C          13.0935  -27.4871   16.2289 C.ar    1  UNL1        0.0178
     14 C          13.2239  -27.2011   14.8763 C.ar    1  UNL1        0.0507
     15 C          12.1399  -27.3684   14.0245 C.ar    1  UNL1        0.0178
     16 C          10.9368  -27.8294   14.5210 C.ar    1  UNL1        0.0382
     17 O           9.6208  -28.5640   16.3615 O.3     1  UNL1       -0.4755
     18 C           8.4098  -29.5407   18.2108 C.3     1  UNL1        0.0512
     19 C           9.6749  -29.5926   17.3520 C.3     1  UNL1        0.2055
     20 N          19.8270  -23.6197   12.7728 N.am    1  UNL1       -0.2832
     21 C          20.1299  -22.3080   12.8371 C.2     1  UNL1        0.2361
     22 O          19.2822  -21.5054   13.1657 O.2     1  UNL1       -0.2739
     23 H          20.4916  -24.2624   12.4346 H       1  UNL1        0.1549
     24 C          21.5218  -21.8387   12.5006 C.3     1  UNL1        0.1280
     25 C          21.6259  -20.3325   12.7480 C.3     1  UNL1        0.0217
     26 S          22.7197  -22.7058   13.5444 S.3     1  UNL1       -0.1093
     27 C          21.8978  -22.6076   15.0998 C.ar    1  UNL1        0.0087
     28 N          21.4296  -23.6594   15.8372 N.ar    1  UNL1       -0.2443
     29 C          20.8716  -23.1016   16.9662 C.ar    1  UNL1        0.1479
     30 N          21.0210  -21.7991   16.8655 N.ar    1  UNL1       -0.3479
     31 N          21.6210  -21.5102   15.7665 N.ar    1  UNL1       -0.5546
     32 C          20.2298  -23.8261   18.0749 C.ar    1  UNL1        0.0637
     33 C          18.9478  -23.7170   18.5519 C.ar    1  UNL1        0.0100
     34 C          18.5668  -24.5116   19.6099 C.ar    1  UNL1        0.0076
     35 C          19.4701  -25.3672   20.1545 C.ar    1  UNL1        0.0355
     36 S          20.9187  -25.0701   19.1544 S.2     1  UNL1       -0.0834
@<TRIPOS>UNITY_ATOM_ATTR
31 1
charge -1
@<TRIPOS>BOND
     1    18    19    1
     2    19    17    1
     3    17    11    1
     4    11    16   ar
     5    11    12   ar
     6    12    13   ar
     7    13    14   ar
     8    14    15   ar
     9    14     7    1
    10    15    16   ar
    11     7     8   am
    12     8     9    2
    13     8     1    1
    14     1     6   ar
    15     1     2   ar
    16     2     3   ar
    17     3     4   ar
    18     4     5   ar
    19     4    20    1
    20     5     6   ar
    21    20    21   am
    22    21    22    2
    23    21    24    1
    24    24    25    1
    25    24    26    1
    26    26    27    1
    27    27    28   ar
    28    27    31   ar
    29    28    29   ar
    30    29    32    1
    31    29    30   ar
    32    30    31   ar
    33    32    36   ar
    34    32    33   ar
    35    33    34   ar
    36    34    35   ar
    37    35    36   ar
    38     7    10    1
    39    20    23    1
#	Name:			ZINC23370373
#	Creating user name:	trannguyen
#	Creation time:		Wed Dec  7 14:36:20 2022


#	Modifying user name:	trannguyen
#	Modification time:	Wed Dec  7 14:36:20 2022

@<TRIPOS>MOLECULE
ZINC23370373
 35 37 0 0 0
SMALL
GASTEIGER

@<TRIPOS>ATOM
      1 C          16.3559  -25.5476   13.5686 C.3     1  UNL1        0.2444
      2 C          17.8011  -26.0351   13.6896 C.3     1  UNL1        0.0575
      3 N          15.0284  -26.9589   15.1062 N.am    1  UNL1       -0.2759
      4 C          15.6368  -25.7793   14.8725 C.2     1  UNL1        0.2668
      5 O          15.6056  -24.9041   15.7116 O.2     1  UNL1       -0.2709
      6 H          15.0537  -27.6693   14.4251 H       1  UNL1        0.1554
      7 C          13.0055  -27.0696   16.5715 C.ar    1  UNL1        0.0918
      8 C          12.5856  -27.3545   17.9233 C.ar    1  UNL1       -0.0080
      9 C          13.5440  -27.6821   18.8080 C.ar    1  UNL1        0.0326
     10 S          15.0360  -27.6225   17.8378 S.2     1  UNL1       -0.0718
     11 C          14.3669  -27.1719   16.3056 C.ar    1  UNL1        0.0867
     12 C          11.1355  -27.2816   18.3273 C.3     1  UNL1        0.0231
     13 C          10.8204  -26.7991   19.7446 C.3     1  UNL1        0.0047
     14 C          10.6453  -28.2752   19.3823 C.3     1  UNL1        0.0047
     15 C          12.0451  -26.6961   15.5310 C.2     1  UNL1        0.3426
     16 O          12.0859  -25.5858   15.0360 O.2     1  UNL1       -0.2448
     17 O          11.1153  -27.5833   15.1218 O.3     1  UNL1       -0.4454
     18 C          10.0283  -27.9901   12.9808 C.3     1  UNL1        0.0513
     19 C          11.3016  -28.1750   13.8089 C.3     1  UNL1        0.2089
     20 O          16.3481  -24.1295   13.2568 O.3     1  UNL1       -0.4416
     21 C          16.4856  -23.7886   11.9658 C.2     1  UNL1        0.3376
     22 O          15.5276  -23.8105   11.2298 O.2     1  UNL1       -0.2482
     23 C          17.8348  -23.3787   11.4343 C.3     1  UNL1        0.2008
     24 N          18.4060  -22.3427   12.2985 N.am    1  UNL1       -0.2915
     25 C          19.5376  -22.5888   12.9880 C.2     1  UNL1        0.2462
     26 O          20.0842  -23.6703   12.8929 O.2     1  UNL1       -0.2701
     27 H          17.9633  -21.4668   12.3754 H       1  UNL1        0.1502
     28 C          20.1140  -21.5433   13.8601 C.ar    1  UNL1        0.0527
     29 C          20.7040  -20.4095   13.2991 C.ar    1  UNL1        0.0002
     30 C          21.2354  -19.4352   14.1187 C.ar    1  UNL1       -0.0220
     31 C          21.1941  -19.5853   15.4935 C.ar    1  UNL1       -0.0085
     32 C          20.6158  -20.7095   16.0558 C.ar    1  UNL1       -0.0220
     33 C          20.0757  -21.6886   15.2477 C.ar    1  UNL1        0.0002
     34 C          20.5753  -20.8645   17.5542 C.3     1  UNL1        0.0310
     35 C          21.8673  -18.2075   13.5150 C.3     1  UNL1        0.0310
@<TRIPOS>BOND
     1    18    19    1
     2    19    17    1
     3    17    15    1
     4    15    16    2
     5    15     7    1
     6     7    11   ar
     7     7     8   ar
     8     8     9   ar
     9     8    12    1
    10     9    10   ar
    11    10    11   ar
    12    11     3    1
    13     3     4   am
    14     4     5    2
    15     4     1    1
    16     1     2    1
    17     1    20    1
    18    20    21    1
    19    21    22    2
    20    21    23    1
    21    23    24    1
    22    24    25   am
    23    25    26    2
    24    25    28    1
    25    28    33   ar
    26    28    29   ar
    27    29    30   ar
    28    30    31   ar
    29    30    35    1
    30    31    32   ar
    31    32    33   ar
    32    32    34    1
    33    12    14    1
    34    12    13    1
    35    13    14    1
    36     3     6    1
    37    24    27    1
#	Name:			ZINC23400421
#	Creating user name:	trannguyen
#	Creation time:		Wed Dec  7 14:36:20 2022


#	Modifying user name:	trannguyen
#	Modification time:	Wed Dec  7 14:36:20 2022

@<TRIPOS>MOLECULE
ZINC23400421
 33 35 0 0 0
SMALL
GASTEIGER

@<TRIPOS>ATOM
      1 C          20.9845  -20.8726   13.7438 C.ar    1  UNL1        0.0319
      2 C          21.3370  -19.8341   12.8889 C.ar    1  UNL1        0.0064
      3 C          21.6926  -18.6056   13.4044 C.ar    1  UNL1        0.0005
      4 C          21.7134  -18.3981   14.7754 C.ar    1  UNL1        0.0002
      5 C          21.3734  -19.4154   15.6390 C.ar    1  UNL1        0.0069
      6 C          21.0046  -20.6656   15.1332 C.ar    1  UNL1        0.0813
      7 C          20.6394  -21.7577   16.0506 C.2     1  UNL1        0.3421
      8 O          19.5088  -21.8291   16.4907 O.2     1  UNL1       -0.2449
      9 O          21.5588  -22.6782   16.4025 O.3     1  UNL1       -0.4368
     10 C          21.0674  -23.9952   16.7663 C.3     1  UNL1        0.2770
     11 C          21.2015  -24.1878   18.2549 C.2     1  UNL1        0.2181
     12 O          22.2266  -23.8655   18.8186 O.2     1  UNL1       -0.2873
     13 C          20.0944  -24.7641   19.0213 C.ar    1  UNL1        0.0510
     14 C          18.7854  -24.1512   19.2830 C.ar    1  UNL1        0.0166
     15 C          18.0933  -25.0369   20.0191 C.ar    1  UNL1        0.0339
     16 N          18.8686  -26.1383   20.2406 N.ar    1  UNL1       -0.3596
     17 C          20.0691  -25.9939   19.6518 C.ar    1  UNL1        0.0366
     18 C          21.1918  -26.9989   19.6749 C.3     1  UNL1        0.0499
     19 C          16.6871  -24.8427   20.5251 C.3     1  UNL1        0.0498
     20 H          18.5884  -26.9273   20.7584 H       1  UNL1        0.1653
     21 S          20.5224  -22.4415   13.0884 S.3     1  UNL1       -0.1037
     22 C          18.7463  -22.1767   12.8616 C.3     1  UNL1        0.1472
     23 N          18.5633  -24.0924   14.4156 N.am    1  UNL1       -0.2832
     24 C          17.9853  -23.3271   13.4688 C.2     1  UNL1        0.2375
     25 O          16.8527  -23.5641   13.1053 O.2     1  UNL1       -0.2738
     26 H          19.5048  -23.9434   14.6621 H       1  UNL1        0.1549
     27 C          15.5713  -28.1728   16.9812 C.3     1  UNL1        0.0310
     28 C          16.3661  -27.0890   16.2998 C.ar    1  UNL1       -0.0218
     29 C          17.1361  -27.3912   15.1916 C.ar    1  UNL1       -0.0030
     30 C          17.8656  -26.4000   14.5647 C.ar    1  UNL1        0.0143
     31 C          17.8254  -25.0988   15.0485 C.ar    1  UNL1        0.0503
     32 C          17.0557  -24.7998   16.1650 C.ar    1  UNL1        0.0143
     33 C          16.3235  -25.7942   16.7836 C.ar    1  UNL1       -0.0030
@<TRIPOS>BOND
     1    27    28    1
     2    28    33   ar
     3    28    29   ar
     4    29    30   ar
     5    30    31   ar
     6    31    32   ar
     7    31    23    1
     8    32    33   ar
     9    23    24   am
    10    24    25    2
    11    24    22    1
    12    22    21    1
    13    21     1    1
    14     1     6   ar
    15     1     2   ar
    16     2     3   ar
    17     3     4   ar
    18     4     5   ar
    19     5     6   ar
    20     6     7    1
    21     7     8    2
    22     7     9    1
    23     9    10    1
    24    10    11    1
    25    11    12    2
    26    11    13    1
    27    13    17   ar
    28    13    14   ar
    29    14    15   ar
    30    15    16   ar
    31    15    19    1
    32    16    17   ar
    33    17    18    1
    34    23    26    1
    35    16    20    1
#	Name:			ZINC23511425
#	Creating user name:	trannguyen
#	Creation time:		Wed Dec  7 14:36:19 2022


#	Modifying user name:	trannguyen
#	Modification time:	Wed Dec  7 14:36:19 2022

@<TRIPOS>MOLECULE
ZINC23511425
 28 30 0 0 0
SMALL
GASTEIGER

@<TRIPOS>ATOM
      1 C          14.6033  -26.1317   15.0707 C.2     1  UNL1        0.2511
      2 O          15.3313  -25.6931   15.9427 O.2     1  UNL1       -0.2698
      3 N          14.7693  -25.7373   13.7927 N.am    1  UNL1       -0.2606
      4 H          14.1806  -26.0919   13.0878 H       1  UNL1        0.1571
      5 C          15.7704  -24.8309   13.4702 C.ar    1  UNL1        0.1655
      6 N          15.6960  -23.5186   13.3592 N.ar    1  UNL1       -0.2227
      7 C          16.7559  -22.7982   13.0481 C.ar    1  UNL1        0.1034
      8 C          17.9309  -23.4381   12.8308 C.ar    1  UNL1        0.0334
      9 S          17.4421  -25.1339   13.1106 S.2     1  UNL1       -0.0554
     10 C          19.2788  -22.8743   12.4617 C.3     1  UNL1        0.0610
     11 C          19.8408  -22.1091   13.6320 C.ar    1  UNL1       -0.0142
     12 C          19.7514  -22.6345   14.9081 C.ar    1  UNL1       -0.0037
     13 C          20.2655  -21.9348   15.9838 C.ar    1  UNL1        0.0028
     14 C          20.8704  -20.7084   15.7862 C.ar    1  UNL1        0.0369
     15 C          20.9615  -20.1792   14.5073 C.ar    1  UNL1        0.1384
     16 C          20.4445  -20.8835   13.4293 C.ar    1  UNL1        0.0330
     17 O          21.5555  -18.9730   14.3104 O.3     1  UNL1       -0.4714
     18 C          22.0687  -18.3063   15.4656 C.3     1  UNL1        0.2525
     19 C          12.2845  -26.7231   15.2188 C.2     1  UNL1        0.0083
     20 C          13.5819  -27.0565   15.3997 C.2     1  UNL1        0.0582
     21 C          10.3771  -28.1924   13.1524 C.3     1  UNL1        0.0540
     22 C          10.3672  -28.3447   14.6516 C.ar    1  UNL1        0.0812
     23 C          11.2257  -27.6817   15.5599 C.ar    1  UNL1        0.0435
     24 C          10.8831  -28.1120   16.8314 C.ar    1  UNL1        0.1360
     25 N           9.8654  -28.9809   16.6990 N.ar    1  UNL1       -0.2385
     26 N           9.5663  -29.1111   15.3384 N.ar    1  UNL1       -0.1728
     27 C           9.1881  -29.6788   17.7946 C.3     1  UNL1        0.1547
     28 CL         11.6267  -27.6174   18.3200 Cl      1  UNL1       -0.0617
@<TRIPOS>BOND
     1    21    22    1
     2    22    26   ar
     3    22    23   ar
     4    23    24   ar
     5    23    19    1
     6    24    25   ar
     7    24    28    1
     8    25    26   ar
     9    25    27    1
    10    19    20    2
    11    20     1    1
    12     1     2    2
    13     1     3   am
    14     3     5    1
    15     5     9   ar
    16     5     6   ar
    17     6     7   ar
    18     7     8   ar
    19     8     9   ar
    20     8    10    1
    21    10    11    1
    22    11    16   ar
    23    11    12   ar
    24    12    13   ar
    25    13    14   ar
    26    14    15   ar
    27    15    16   ar
    28    15    17    1
    29    17    18    1
    30     3     4    1
#	Name:			ZINC23555445
#	Creating user name:	trannguyen
#	Creation time:		Wed Dec  7 14:36:20 2022


#	Modifying user name:	trannguyen
#	Modification time:	Wed Dec  7 14:36:20 2022

@<TRIPOS>MOLECULE
ZINC23555445
 38 41 0 0 0
SMALL
GASTEIGER

@<TRIPOS>ATOM
      1 C          20.4459  -22.9925   16.3131 C.ar    1  UNL1        0.2241
      2 N          19.6216  -22.5425   15.3696 N.ar    1  UNL1       -0.1976
      3 C          20.0055  -22.5305   14.1053 C.ar    1  UNL1        0.1562
      4 N          21.2125  -22.9547   13.7734 N.ar    1  UNL1       -0.1981
      5 C          22.0443  -23.4010   14.7118 C.ar    1  UNL1        0.2172
      6 N          21.6598  -23.4196   15.9835 N.ar    1  UNL1       -0.1810
      7 N          23.3041  -23.8441   14.3644 N.pl3   1  UNL1       -0.3274
      8 H          23.5884  -23.8301   13.4219 H       1  UNL1        0.1452
      9 H          23.9187  -24.1743   15.0590 H       1  UNL1        0.1452
     10 N          20.0414  -23.0103   17.6338 N.pl3   1  UNL1       -0.2827
     11 H          19.7263  -22.1824   18.0633 H       1  UNL1        0.1551
     12 C          18.9040  -24.8938   18.6282 C.ar    1  UNL1       -0.0087
     13 C          18.9451  -26.0733   19.3460 C.ar    1  UNL1       -0.0030
     14 C          20.1548  -26.5679   19.7972 C.ar    1  UNL1       -0.0002
     15 C          21.3272  -25.8840   19.5319 C.ar    1  UNL1        0.0013
     16 C          21.2936  -24.7066   18.8112 C.ar    1  UNL1        0.0144
     17 C          20.0794  -24.2043   18.3606 C.ar    1  UNL1        0.0464
     18 C          16.7899  -23.7968   19.3185 C.3     1  UNL1        0.0051
     19 C          17.5850  -24.3554   18.1367 C.3     1  UNL1        0.0276
     20 C          19.0669  -22.0261   13.0397 C.3     1  UNL1        0.1307
     21 S          18.4550  -23.4226   12.0644 S.3     1  UNL1       -0.0675
     22 C          16.9861  -23.8016   12.9607 C.ar    1  UNL1        0.1937
     23 N          15.9267  -23.0359   13.0831 N.ar    1  UNL1       -0.1223
     24 N          15.0426  -23.6261   13.8054 N.ar    1  UNL1       -0.1290
     25 C          15.4807  -24.7933   14.1839 C.ar    1  UNL1        0.1885
     26 N          16.7364  -24.9450   13.6639 N.ar    1  UNL1       -0.2866
     27 C          17.6274  -26.0967   13.8253 C.3     1  UNL1        0.1357
     28 C          18.5066  -25.8865   15.0311 C.2     1  UNL1       -0.0017
     29 C          19.0246  -26.9174   15.6516 C.2     1  UNL1       -0.0029
     30 C          14.7429  -25.7890   15.0415 C.3     1  UNL1        0.2703
     31 O          13.3866  -25.3679   15.2004 O.3     1  UNL1       -0.4673
     32 C          12.4451  -26.3432   15.2977 C.ar    1  UNL1        0.1389
     33 C          12.2310  -26.9839   16.5097 C.ar    1  UNL1        0.0369
     34 C          11.2738  -27.9751   16.6058 C.ar    1  UNL1        0.0028
     35 C          10.5297  -28.3294   15.4955 C.ar    1  UNL1       -0.0041
     36 C          10.7452  -27.6966   14.2853 C.ar    1  UNL1       -0.0188
     37 C          11.6971  -26.7001   14.1854 C.ar    1  UNL1        0.0327
     38 C           9.9371  -28.0900   13.0756 C.3     1  UNL1        0.0311
@<TRIPOS>BOND
     1    18    19    1
     2    19    12    1
     3    12    17   ar
     4    12    13   ar
     5    13    14   ar
     6    14    15   ar
     7    15    16   ar
     8    16    17   ar
     9    17    10    1
    10    10     1    1
    11     1     6   ar
    12     1     2   ar
    13     2     3   ar
    14     3     4   ar
    15     3    20    1
    16     4     5   ar
    17     5     6   ar
    18     5     7    1
    19    20    21    1
    20    21    22    1
    21    22    26   ar
    22    22    23   ar
    23    23    24   ar
    24    24    25   ar
    25    25    26   ar
    26    25    30    1
    27    26    27    1
    28    27    28    1
    29    28    29    2
    30    30    31    1
    31    31    32    1
    32    32    37   ar
    33    32    33   ar
    34    33    34   ar
    35    34    35   ar
    36    35    36   ar
    37    36    37   ar
    38    36    38    1
    39    10    11    1
    40     7     8    1
    41     7     9    1
#	Name:			ZINC23802442
#	Creating user name:	trannguyen
#	Creation time:		Wed Dec  7 14:36:20 2022


#	Modifying user name:	trannguyen
#	Modification time:	Wed Dec  7 14:36:20 2022

@<TRIPOS>MOLECULE
ZINC23802442
 38 42 0 0 0
SMALL
GASTEIGER

@<TRIPOS>ATOM
      1 N          20.9725  -22.4066   15.0892 N.ar    1  UNL1       -0.2120
      2 C          20.3025  -23.1072   14.1266 C.ar    1  UNL1        0.1708
      3 C          20.7819  -24.4304   14.1869 C.ar    1  UNL1        0.0885
      4 C          21.7472  -24.4740   15.2164 C.ar    1  UNL1        0.1264
      5 N          21.8455  -23.2860   15.7424 N.ar    1  UNL1       -0.1620
      6 C          20.2556  -25.3754   13.2840 C.ar    1  UNL1        0.1395
      7 N          19.3239  -24.9797   12.4246 N.ar    1  UNL1       -0.1986
      8 C          18.8965  -23.7228   12.4063 C.ar    1  UNL1        0.2195
      9 N          19.3662  -22.8017   13.2308 N.ar    1  UNL1       -0.1945
     10 C          20.4704  -18.3628   15.9622 C.ar    1  UNL1        0.0001
     11 C          21.0355  -18.7440   14.7590 C.ar    1  UNL1        0.0015
     12 C          21.2033  -20.0832   14.4667 C.ar    1  UNL1        0.0192
     13 C          20.8042  -21.0477   15.3828 C.ar    1  UNL1        0.0844
     14 C          20.2325  -20.6618   16.5882 C.ar    1  UNL1        0.0192
     15 C          20.0724  -19.3207   16.8767 C.ar    1  UNL1        0.0015
     16 N          17.9237  -23.3632   11.4901 N.pl3   1  UNL1       -0.2978
     17 H          18.1570  -22.7917   10.7232 H       1  UNL1        0.1498
     18 C          16.5467  -23.8331   11.6614 C.3     1  UNL1        0.1512
     19 C          16.0398  -23.4321   13.0482 C.3     1  UNL1        0.1272
     20 N          15.3731  -24.5803   13.6768 N.4     1  UNL1        0.2810
     21 C          14.5067  -24.1461   14.7823 C.3     1  UNL1        0.1381
     22 C          13.7877  -25.3640   15.3686 C.3     1  UNL1        0.2029
     23 O          14.7576  -26.3280   15.7873 O.3     1  UNL1       -0.3412
     24 C          15.6180  -26.7733   14.7354 C.3     1  UNL1        0.2029
     25 C          16.3556  -25.5698   14.1426 C.3     1  UNL1        0.1381
     26 H          14.7864  -25.0253   12.9709 H       1  UNL1        0.2069
     27 N          20.6947  -26.6851   13.2964 N.pl3   1  UNL1       -0.2977
     28 H          20.2136  -27.3606   13.8270 H       1  UNL1        0.1536
     29 C          21.8245  -27.0520   12.5543 C.ar    1  UNL1        0.0494
     30 C          22.9770  -26.2795   12.6164 C.ar    1  UNL1        0.0151
     31 C          24.0922  -26.6436   11.8888 C.ar    1  UNL1        0.0076
     32 C          24.0582  -27.7773   11.0863 C.ar    1  UNL1        0.0303
     33 C          22.9034  -28.5470   11.0201 C.ar    1  UNL1        0.0076
     34 C          21.7901  -28.1851   11.7518 C.ar    1  UNL1        0.0151
     35 S          25.4793  -28.2386   10.1523 S.3     1  UNL1       -0.0442
     36 C          25.1454  -27.5851    8.4934 C.3     1  UNL1        0.3707
     37 F          24.2698  -28.4445    7.8211 F       1  UNL1       -0.1852
     38 F          24.5639  -26.3171    8.6000 F       1  UNL1       -0.1852
@<TRIPOS>UNITY_ATOM_ATTR
20 1
charge 1
@<TRIPOS>BOND
     1    10    15   ar
     2    10    11   ar
     3    11    12   ar
     4    12    13   ar
     5    13    14   ar
     6    13     1    1
     7    14    15   ar
     8     1     5   ar
     9     1     2   ar
    10     2     9   ar
    11     2     3   ar
    12     3     4   ar
    13     3     6   ar
    14     4     5   ar
    15     6     7   ar
    16     6    27    1
    17     7     8   ar
    18     8     9   ar
    19     8    16    1
    20    16    18    1
    21    18    19    1
    22    19    20    1
    23    20    25    1
    24    20    21    1
    25    21    22    1
    26    22    23    1
    27    23    24    1
    28    24    25    1
    29    27    29    1
    30    29    34   ar
    31    29    30   ar
    32    30    31   ar
    33    31    32   ar
    34    32    33   ar
    35    32    35    1
    36    33    34   ar
    37    35    36    1
    38    36    37    1
    39    36    38    1
    40    16    17    1
    41    20    26    1
    42    27    28    1
#	Name:			ZINC23875875
#	Creating user name:	trannguyen
#	Creation time:		Wed Dec  7 14:36:20 2022


#	Modifying user name:	trannguyen
#	Modification time:	Wed Dec  7 14:36:20 2022

@<TRIPOS>MOLECULE
ZINC23875875
 39 41 0 0 0
SMALL
GASTEIGER

@<TRIPOS>ATOM
      1 O          15.2908  -25.4151   14.4323 O.3     1  UNL1       -0.4372
      2 C          16.5426  -25.6528   14.8547 C.2     1  UNL1        0.3358
      3 O          16.7838  -26.6441   15.5019 O.2     1  UNL1       -0.2482
      4 C          17.6470  -24.6830   14.5217 C.3     1  UNL1        0.1759
      5 N          17.8772  -24.6831   13.0749 N.am    1  UNL1       -0.2965
      6 C          17.8077  -23.5297   12.3813 C.2     1  UNL1        0.2233
      7 O          17.5545  -22.4915   12.9550 O.2     1  UNL1       -0.2751
      8 C          18.0444  -23.5298   10.8930 C.3     1  UNL1        0.0946
      9 H          18.0826  -25.5259   12.6092 H       1  UNL1        0.1499
     10 C          18.9295  -25.1038   15.2421 C.3     1  UNL1        0.0590
     11 C          19.2058  -24.1490   16.3748 C.ar    1  UNL1       -0.0016
     12 C          18.9890  -24.3746   17.6802 C.ar    1  UNL1        0.0681
     13 N          19.3616  -23.2796   18.4112 N.ar    1  UNL1       -0.3523
     14 C          19.8395  -22.2974   17.5727 C.ar    1  UNL1        0.0563
     15 C          19.7630  -22.7989   16.2603 C.ar    1  UNL1        0.0131
     16 C          20.1851  -22.0113   15.1880 C.ar    1  UNL1        0.0012
     17 C          20.6713  -20.7552   15.4190 C.ar    1  UNL1        0.0001
     18 C          20.7489  -20.2560   16.7116 C.ar    1  UNL1        0.0015
     19 C          20.3420  -21.0180   17.7850 C.ar    1  UNL1        0.0170
     20 H          19.2975  -23.2050   19.3908 H       1  UNL1        0.1660
     21 C          14.3031  -25.0922   15.4464 C.3     1  UNL1        0.2927
     22 N          12.9091  -27.0669   14.9210 N.am    1  UNL1       -0.2807
     23 C          12.9866  -25.7316   15.0870 C.2     1  UNL1        0.2708
     24 O          11.9970  -25.0447   14.9471 O.2     1  UNL1       -0.2707
     25 H          13.7241  -27.6172   14.9698 H       1  UNL1        0.1550
     26 C          10.9256  -28.1880   15.7453 C.ar    1  UNL1        0.0668
     27 C           9.6902  -28.7883   15.4907 C.ar    1  UNL1        0.0058
     28 C           9.2173  -28.8664   14.1988 C.ar    1  UNL1        0.0002
     29 C           9.9610  -28.3516   13.1491 C.ar    1  UNL1        0.0013
     30 C          11.1810  -27.7513   13.3857 C.ar    1  UNL1        0.0148
     31 C          11.6760  -27.6683   14.6804 C.ar    1  UNL1        0.0548
     32 N          10.9169  -27.1992   17.9822 N.am    1  UNL1       -0.3008
     33 C          11.4376  -28.1006   17.1261 C.2     1  UNL1        0.2471
     34 O          12.3292  -28.8420   17.4919 O.2     1  UNL1       -0.2701
     35 H          10.1949  -26.5989   17.6860 H       1  UNL1        0.1497
     36 C          11.4253  -27.1125   19.3534 C.3     1  UNL1        0.0896
     37 C           9.6483  -25.5843   20.2190 C.3     1  UNL1        0.0017
     38 C          10.2507  -26.9868   20.3257 C.3     1  UNL1        0.0196
     39 C           9.1852  -28.0275   19.9759 C.3     1  UNL1        0.0017
@<TRIPOS>BOND
     1    37    38    1
     2    38    39    1
     3    38    36    1
     4    36    32    1
     5    32    33   am
     6    33    34    2
     7    33    26    1
     8    26    31   ar
     9    26    27   ar
    10    27    28   ar
    11    28    29   ar
    12    29    30   ar
    13    30    31   ar
    14    31    22    1
    15    22    23   am
    16    23    24    2
    17    23    21    1
    18    21     1    1
    19     1     2    1
    20     2     3    2
    21     2     4    1
    22     4    10    1
    23     4     5    1
    24    10    11    1
    25    11    15   ar
    26    11    12   ar
    27    12    13   ar
    28    13    14   ar
    29    14    19   ar
    30    14    15   ar
    31    15    16   ar
    32    16    17   ar
    33    17    18   ar
    34    18    19   ar
    35     5     6   am
    36     6     7    2
    37     6     8    1
    38    32    35    1
    39    22    25    1
    40    13    20    1
    41     5     9    1
#	Name:			ZINC23966789
#	Creating user name:	trannguyen
#	Creation time:		Wed Dec  7 14:36:19 2022


#	Modifying user name:	trannguyen
#	Modification time:	Wed Dec  7 14:36:19 2022

@<TRIPOS>MOLECULE
ZINC23966789
 38 41 0 0 0
SMALL
GASTEIGER

@<TRIPOS>ATOM
      1 C          21.3756  -30.0700   13.1080 C.ar    1  UNL1        0.0758
      2 C          22.0312  -29.1523   12.2816 C.ar    1  UNL1        0.0078
      3 C          21.6186  -27.8396   12.2504 C.ar    1  UNL1        0.0151
      4 C          20.5498  -27.4254   13.0399 C.ar    1  UNL1        0.0322
      5 C          19.8986  -28.3350   13.8679 C.ar    1  UNL1        0.0151
      6 C          20.3025  -29.6503   13.9002 C.ar    1  UNL1        0.0078
      7 N          20.1346  -26.0962   13.0054 N.ar    1  UNL1       -0.4817
      8 C          19.0502  -25.5515   12.1769 C.2     1  UNL1       -0.3366
      9 C          19.0021  -24.0765   12.5148 C.ar    1  UNL1        0.0299
     10 O          18.2442  -23.2432   12.0576 O.2     1  UNL1       -0.3265
     11 C          20.0180  -23.8696   13.4653 C.ar    1  UNL1        0.0543
     12 C          20.6620  -25.0741   13.7342 C.ar    1  UNL1        0.0791
     13 N          21.6922  -25.2129   14.6171 N.pl3   1  UNL1       -0.3457
     14 H          22.1029  -26.0962   14.7594 H       1  UNL1        0.1436
     15 H          22.0251  -24.4297   15.1121 H       1  UNL1        0.1436
     16 C          20.3465  -22.5758   14.0866 C.ar    1  UNL1        0.1135
     17 N          20.8443  -21.4920   13.5258 N.ar    1  UNL1       -0.2382
     18 C          21.0967  -20.3667   14.2255 C.ar    1  UNL1        0.0879
     19 C          21.6263  -19.1438   13.7502 C.ar    1  UNL1        0.0196
     20 C          21.8177  -18.0864   14.6004 C.ar    1  UNL1        0.0016
     21 C          21.5130  -18.1774   15.9510 C.ar    1  UNL1        0.0006
     22 C          20.9938  -19.3581   16.4503 C.ar    1  UNL1        0.0080
     23 C          20.7931  -20.4210   15.6056 C.ar    1  UNL1        0.0485
     24 S          20.1714  -22.0748   15.7932 S.2     1  UNL1       -0.0664
     25 C          21.8144  -31.4771   13.1437 C.2     1  UNL1        0.3415
     26 O          21.0600  -32.3386   13.5499 O.2     1  UNL1       -0.2449
     27 O          23.0521  -31.8077   12.7257 O.3     1  UNL1       -0.4397
     28 C          23.1484  -32.6011   11.5134 C.3     1  UNL1        0.2443
     29 C          23.9609  -33.8665   11.7953 C.3     1  UNL1        0.0575
     30 N          23.1042  -30.9985    9.6297 N.am    1  UNL1       -0.3014
     31 C          23.8308  -31.7950   10.4386 C.2     1  UNL1        0.2628
     32 O          25.0339  -31.8628   10.3014 O.2     1  UNL1       -0.2712
     33 H          22.1276  -30.9434    9.7411 H       1  UNL1        0.1495
     34 C          23.7677  -30.2148    8.5848 C.3     1  UNL1        0.0895
     35 C          23.7808  -28.7383    8.9855 C.3     1  UNL1        0.0212
     36 C          25.1217  -28.3992    9.6396 C.3     1  UNL1        0.0017
     37 C          24.7998  -26.7016    7.8348 C.3     1  UNL1        0.0000
     38 C          25.7559  -27.2096    8.9159 C.3     1  UNL1        0.0001
@<TRIPOS>UNITY_ATOM_ATTR
8 1
charge -1
@<TRIPOS>BOND
     1    37    38    1
     2    38    36    1
     3    36    35    1
     4    35    34    1
     5    34    30    1
     6    30    31   am
     7    31    32    2
     8    31    28    1
     9    28    29    1
    10    28    27    1
    11    27    25    1
    12    25    26    2
    13    25     1    1
    14     1     6   ar
    15     1     2   ar
    16     2     3   ar
    17     3     4   ar
    18     4     5   ar
    19     4     7    1
    20     5     6   ar
    21     7    12   ar
    22     7     8   ar
    23     8     9   ar
    24     9    10    2
    25     9    11   ar
    26    11    12   ar
    27    11    16    1
    28    12    13    1
    29    16    24   ar
    30    16    17   ar
    31    17    18   ar
    32    18    23   ar
    33    18    19   ar
    34    19    20   ar
    35    20    21   ar
    36    21    22   ar
    37    22    23   ar
    38    23    24   ar
    39    30    33    1
    40    13    14    1
    41    13    15    1
#	Name:			ZINC23966824
#	Creating user name:	trannguyen
#	Creation time:		Wed Dec  7 14:36:20 2022


#	Modifying user name:	trannguyen
#	Modification time:	Wed Dec  7 14:36:20 2022

@<TRIPOS>MOLECULE
ZINC23966824
 30 32 0 0 0
SMALL
GASTEIGER

@<TRIPOS>ATOM
      1 N          18.4026  -24.2532   14.9916 N.am    1  UNL1       -0.2992
      2 C          19.1903  -24.4406   13.9141 C.2     1  UNL1        0.2673
      3 O          19.4480  -25.5650   13.5396 O.2     1  UNL1       -0.2711
      4 H          18.1933  -23.3405   15.2956 H       1  UNL1        0.1498
      5 C          17.8577  -25.4077   15.7103 C.3     1  UNL1        0.0941
      6 C          13.6176  -25.5359   15.1929 C.ar    1  UNL1        0.1387
      7 C          14.3125  -24.3606   14.9465 C.ar    1  UNL1        0.0366
      8 C          15.6831  -24.3217   15.1148 C.ar    1  UNL1        0.0004
      9 C          16.3625  -25.4528   15.5280 C.ar    1  UNL1       -0.0043
     10 C          15.6729  -26.6268   15.7688 C.ar    1  UNL1        0.0004
     11 C          14.3015  -26.6693   15.6078 C.ar    1  UNL1        0.0366
     12 C          11.6759  -26.8651   14.8540 C.3     1  UNL1        0.2525
     13 O          12.2693  -25.5768   15.0277 O.3     1  UNL1       -0.4714
     14 C          18.1864  -25.2830   17.1993 C.3     1  UNL1        0.0222
     15 C          18.1660  -23.8814   17.8124 C.3     1  UNL1        0.0020
     16 C          19.4996  -24.5951   17.5776 C.3     1  UNL1        0.0020
     17 C          19.7458  -23.2530   13.1712 C.3     1  UNL1        0.2927
     18 O          21.1869  -23.2060   13.3422 O.3     1  UNL1       -0.4352
     19 C          21.6497  -22.6846   14.4957 C.2     1  UNL1        0.3446
     20 O          22.3062  -23.3721   15.2530 O.2     1  UNL1       -0.2448
     21 C          21.3600  -21.2831   14.8383 C.ar    1  UNL1        0.1094
     22 C          20.8106  -20.9637   16.0847 C.ar    1  UNL1        0.0126
     23 C          20.5427  -19.6630   16.4014 C.ar    1  UNL1        0.0370
     24 C          20.8129  -18.6466   15.4897 C.ar    1  UNL1        0.1367
     25 C          21.3571  -18.9458   14.2493 C.ar    1  UNL1        0.0734
     26 C          21.6389  -20.2604   13.9180 C.ar    1  UNL1        0.1429
     27 O          22.1768  -20.5588   12.7090 O.3     1  UNL1       -0.5052
     28 O          20.5432  -17.3572   15.8158 O.3     1  UNL1       -0.5054
     29 H          22.3664  -21.4493   12.4875 H       1  UNL1        0.2922
     30 H          20.1755  -17.1528   16.6531 H       1  UNL1        0.2922
@<TRIPOS>BOND
     1    12    13    1
     2    13     6    1
     3     6    11   ar
     4     6     7   ar
     5     7     8   ar
     6     8     9   ar
     7     9    10   ar
     8     9     5    1
     9    10    11   ar
    10     5    14    1
    11     5     1    1
    12    14    16    1
    13    14    15    1
    14    15    16    1
    15     1     2   am
    16     2     3    2
    17     2    17    1
    18    17    18    1
    19    18    19    1
    20    19    20    2
    21    19    21    1
    22    21    26   ar
    23    21    22   ar
    24    22    23   ar
    25    23    24   ar
    26    24    25   ar
    27    24    28    1
    28    25    26   ar
    29    26    27    1
    30     1     4    1
    31    27    29    1
    32    28    30    1
#	Name:			ZINC24002093
#	Creating user name:	trannguyen
#	Creation time:		Wed Dec  7 14:36:20 2022


#	Modifying user name:	trannguyen
#	Modification time:	Wed Dec  7 14:36:20 2022

@<TRIPOS>MOLECULE
ZINC24002093
 36 39 0 0 0
SMALL
GASTEIGER

@<TRIPOS>ATOM
      1 C          20.4086  -23.4106   16.0134 C.2     1  UNL1        0.0887
      2 C          19.3161  -24.1993   15.9245 C.2     1  UNL1        0.0444
      3 N          18.4471  -24.3204   16.9710 N.am    1  UNL1       -0.2711
      4 C          18.6055  -23.6941   18.1438 C.2     1  UNL1        0.3048
      5 O          17.7805  -23.8682   19.0194 O.2     1  UNL1       -0.2525
      6 N          19.6469  -22.8730   18.3835 N.am    1  UNL1       -0.2800
      7 C          20.6398  -22.6701   17.3150 C.3     1  UNL1        0.1605
      8 H          17.6601  -24.9008   16.8567 H       1  UNL1        0.1561
      9 H          19.7417  -22.4196   19.2522 H       1  UNL1        0.1516
     10 C          20.6954  -21.1958   17.0072 C.ar    1  UNL1        0.1453
     11 C          19.6963  -20.3149   17.1946 C.ar    1  UNL1        0.0382
     12 C          20.1791  -19.0533   16.7773 C.ar    1  UNL1        0.0435
     13 C          21.4414  -19.2403   16.3522 C.ar    1  UNL1        0.1792
     14 O          21.7489  -20.5399   16.4938 O.2     1  UNL1       -0.4527
     15 C          21.3064  -23.2798   14.9281 C.2     1  UNL1        0.3401
     16 O          22.4051  -23.8001   14.9813 O.2     1  UNL1       -0.2451
     17 O          20.9446  -22.5780   13.8339 O.3     1  UNL1       -0.4456
     18 C          21.4453  -20.4129   12.8840 C.3     1  UNL1        0.0513
     19 C          21.9659  -21.8204   13.1819 C.3     1  UNL1        0.2089
     20 C          19.0481  -24.9534   14.6474 C.3     1  UNL1        0.1050
     21 S          17.8575  -24.0329   13.6418 S.3     1  UNL1       -0.0838
     22 C          16.3561  -24.7747   14.1898 C.ar    1  UNL1        0.1167
     23 N          16.1067  -26.0330   14.4409 N.ar    1  UNL1       -0.3535
     24 N          14.8594  -26.4300   14.8657 N.ar    1  UNL1       -0.5547
     25 C          13.8902  -25.4702   15.0170 C.ar    1  UNL1        0.0128
     26 N          12.6347  -25.5990   15.4057 N.2     1  UNL1       -0.2586
     27 S          14.7855  -24.0004   14.5379 S.2     1  UNL1       -0.0674
     28 C          12.1701  -26.8155   15.8266 C.ar    1  UNL1        0.1133
     29 C          12.5566  -27.3227   17.0681 C.ar    1  UNL1        0.0179
     30 C          12.0839  -28.5502   17.4871 C.ar    1  UNL1       -0.0202
     31 C          11.2331  -29.2822   16.6784 C.ar    1  UNL1       -0.0010
     32 C          10.8388  -28.7861   15.4477 C.ar    1  UNL1        0.0381
     33 C          11.3035  -27.5580   15.0137 C.ar    1  UNL1        0.1561
     34 C          12.5014  -29.0978   18.8276 C.3     1  UNL1        0.0311
     35 O          10.9210  -27.0730   13.8019 O.3     1  UNL1       -0.4699
     36 C          10.0177  -27.8745   13.0380 C.3     1  UNL1        0.2525
@<TRIPOS>UNITY_ATOM_ATTR
24 1
charge -1
@<TRIPOS>BOND
     1    18    19    1
     2    19    17    1
     3    17    15    1
     4    15    16    2
     5    15     1    1
     6     1     7    1
     7     1     2    2
     8     2     3    1
     9     2    20    1
    10     3     4   am
    11     4     5    2
    12     4     6   am
    13     6     7    1
    14     7    10    1
    15    10    14   ar
    16    10    11   ar
    17    11    12   ar
    18    12    13   ar
    19    13    14   ar
    20    20    21    1
    21    21    22    1
    22    22    27   ar
    23    22    23   ar
    24    23    24   ar
    25    24    25   ar
    26    25    26    2
    27    25    27   ar
    28    26    28    1
    29    28    33   ar
    30    28    29   ar
    31    29    30   ar
    32    30    31   ar
    33    30    34    1
    34    31    32   ar
    35    32    33   ar
    36    33    35    1
    37    35    36    1
    38     3     8    1
    39     6     9    1
#	Name:			ZINC24014076
#	Creating user name:	trannguyen
#	Creation time:		Wed Dec  7 14:36:20 2022


#	Modifying user name:	trannguyen
#	Modification time:	Wed Dec  7 14:36:20 2022

@<TRIPOS>MOLECULE
ZINC24014076
 34 36 0 0 0
SMALL
GASTEIGER

@<TRIPOS>ATOM
      1 C          23.7869  -25.6721   13.2366 C.3     1  UNL1        0.0754
      2 C          22.7164  -24.6390   13.4771 C.2     1  UNL1        0.1155
      3 C          21.4439  -25.0314   13.6548 C.2     1  UNL1        0.0940
      4 C          20.3405  -24.0463   13.9103 C.3     1  UNL1        0.0876
      5 C          20.7680  -22.6518   13.5458 C.2     1  UNL1        0.1153
      6 C          22.0850  -22.3519   13.3576 C.2     1  UNL1        0.2719
      7 N          23.0526  -23.3129   13.5118 N.pl3   1  UNL1       -0.2075
      8 N          22.4350  -21.0699   13.0021 N.pl3   1  UNL1       -0.2017
      9 C          21.5717  -19.9619   13.4307 C.3     1  UNL1        0.2880
     10 N          20.1701  -20.3548   13.2570 N.am    1  UNL1       -0.2576
     11 C          19.8023  -21.6424   13.3873 C.2     1  UNL1        0.2527
     12 O          18.6197  -21.9369   13.3672 O.2     1  UNL1       -0.2701
     13 H          23.9909  -23.0475   13.6476 H       1  UNL1        0.2979
     14 H          23.2467  -20.8990   12.4717 H       1  UNL1        0.2943
     15 H          19.4936  -19.6722   13.0435 H       1  UNL1        0.1542
     16 C          19.9709  -24.0848   15.3708 C.ar    1  UNL1       -0.0136
     17 C          20.9360  -23.8576   16.3341 C.ar    1  UNL1       -0.0039
     18 C          20.5970  -23.8929   17.6738 C.ar    1  UNL1       -0.0046
     19 C          19.2928  -24.1547   18.0501 C.ar    1  UNL1       -0.0225
     20 C          18.3289  -24.3867   17.0869 C.ar    1  UNL1       -0.0046
     21 C          18.6669  -24.3470   15.7471 C.ar    1  UNL1       -0.0039
     22 C          18.9233  -24.1932   19.5106 C.3     1  UNL1        0.0224
     23 C          17.3998  -24.1939   19.6514 C.3     1  UNL1        0.0047
     24 C          19.4951  -25.4612   20.1480 C.3     1  UNL1        0.0047
     25 C          21.1354  -26.4102   13.5996 C.2     1  UNL1        0.3411
     26 O          20.6967  -26.8949   12.5733 O.2     1  UNL1       -0.2451
     27 O          21.3276  -27.1885   14.6851 O.3     1  UNL1       -0.4406
     28 C          20.5230  -28.3648   14.7907 C.3     1  UNL1        0.2352
     29 C          20.1784  -28.6095   16.2372 C.2     1  UNL1        0.0208
     30 C          20.1629  -27.6109   17.0849 C.2     1  UNL1       -0.0011
     31 S          21.8847  -19.5860   15.1776 S.3     1  UNL1       -0.0694
     32 C          20.4851  -18.5369   15.6583 C.3     1  UNL1        0.0889
     33 C          19.8345  -19.1026   16.8942 C.2     1  UNL1       -0.0143
     34 C          19.9162  -20.3850   17.1489 C.2     1  UNL1       -0.0040
@<TRIPOS>BOND
     1     1     2    1
     2     2     7    1
     3     2     3    2
     4     3     4    1
     5     3    25    1
     6     4     5    1
     7     4    16    1
     8     5    11    1
     9     5     6    2
    10     6     7    1
    11     6     8    1
    12     8     9    1
    13     9    10    1
    14     9    31    1
    15    10    11   am
    16    11    12    2
    17    31    32    1
    18    32    33    1
    19    33    34    2
    20    16    21   ar
    21    16    17   ar
    22    17    18   ar
    23    18    19   ar
    24    19    20   ar
    25    19    22    1
    26    20    21   ar
    27    22    23    1
    28    22    24    1
    29    25    26    2
    30    25    27    1
    31    27    28    1
    32    28    29    1
    33    29    30    2
    34     7    13    1
    35     8    14    1
    36    10    15    1
#	Name:			ZINC24105136
#	Creating user name:	trannguyen
#	Creation time:		Wed Dec  7 14:36:19 2022


#	Modifying user name:	trannguyen
#	Modification time:	Wed Dec  7 14:36:19 2022

@<TRIPOS>MOLECULE
ZINC24105136
 31 33 0 0 0
SMALL
GASTEIGER

@<TRIPOS>ATOM
      1 S          20.2213  -27.4815   18.9610 S.3     1  UNL1       -0.0768
      2 C          20.6684  -25.7898   18.7532 C.ar    1  UNL1        0.1611
      3 N          21.8679  -25.2438   18.6895 N.ar    1  UNL1       -0.1331
      4 N          21.9927  -23.8841   18.5211 N.ar    1  UNL1       -0.1249
      5 C          20.9131  -23.1330   18.4241 C.ar    1  UNL1        0.1865
      6 S          19.6192  -24.3566   18.5643 S.2     1  UNL1       -0.0242
      7 N          20.8096  -21.7572   18.2534 N.pl3   1  UNL1       -0.2913
      8 H          20.6896  -21.1717   19.0357 H       1  UNL1        0.1541
      9 C          20.8761  -21.2044   16.9694 C.ar    1  UNL1        0.0500
     10 C          20.5877  -21.9882   15.8596 C.ar    1  UNL1        0.0178
     11 C          20.6490  -21.4406   14.5934 C.ar    1  UNL1        0.0382
     12 C          21.0087  -20.1111   14.4289 C.ar    1  UNL1        0.1388
     13 C          21.3020  -19.3289   15.5363 C.ar    1  UNL1        0.0382
     14 C          21.2362  -19.8733   16.8037 C.ar    1  UNL1        0.0178
     15 O          21.0734  -19.5740   13.1812 O.3     1  UNL1       -0.4714
     16 C          21.7851  -18.3429   13.0409 C.3     1  UNL1        0.2525
     17 C          19.0332  -27.4561   20.3315 C.3     1  UNL1        0.1488
     18 N          17.4127  -27.5310   18.4642 N.am    1  UNL1       -0.3027
     19 C          17.6341  -27.3511   19.7814 C.2     1  UNL1        0.2339
     20 O          16.7074  -27.1046   20.5241 O.2     1  UNL1       -0.2741
     21 H          18.1648  -27.7310   17.8614 H       1  UNL1        0.1495
     22 C          16.0525  -27.4289   17.9295 C.3     1  UNL1        0.1014
     23 C          16.1000  -27.4839   16.4012 C.3     1  UNL1        0.0834
     24 S          15.0572  -26.1672   15.7161 S.3     1  UNL1       -0.1119
     25 C          18.6632  -23.3453   11.7829 C.3     1  UNL1        0.0310
     26 C          17.7630  -24.0500   12.7650 C.ar    1  UNL1       -0.0218
     27 C          16.5988  -24.6524   12.3239 C.ar    1  UNL1       -0.0038
     28 C          15.7714  -25.2986   13.2209 C.ar    1  UNL1        0.0058
     29 C          16.1099  -25.3436   14.5680 C.ar    1  UNL1        0.0252
     30 C          17.2780  -24.7326   15.0082 C.ar    1  UNL1        0.0058
     31 C          18.1034  -24.0931   14.1047 C.ar    1  UNL1       -0.0038
@<TRIPOS>BOND
     1    25    26    1
     2    26    31   ar
     3    26    27   ar
     4    27    28   ar
     5    28    29   ar
     6    29    30   ar
     7    29    24    1
     8    30    31   ar
     9    24    23    1
    10    23    22    1
    11    22    18    1
    12    18    19   am
    13    19    20    2
    14    19    17    1
    15    17     1    1
    16     1     2    1
    17     2     6   ar
    18     2     3   ar
    19     3     4   ar
    20     4     5   ar
    21     5     6   ar
    22     5     7    1
    23     7     9    1
    24     9    14   ar
    25     9    10   ar
    26    10    11   ar
    27    11    12   ar
    28    12    13   ar
    29    12    15    1
    30    13    14   ar
    31    15    16    1
    32    18    21    1
    33     7     8    1
#	Name:			ZINC24375154
#	Creating user name:	trannguyen
#	Creation time:		Wed Dec  7 14:36:19 2022


#	Modifying user name:	trannguyen
#	Modification time:	Wed Dec  7 14:36:19 2022

@<TRIPOS>MOLECULE
ZINC24375154
 38 39 0 0 0
SMALL
GASTEIGER

@<TRIPOS>ATOM
      1 N          15.1359  -26.6966   15.2574 N.am    1  UNL1       -0.2679
      2 C          15.2101  -25.5342   14.5793 C.2     1  UNL1        0.3103
      3 O          14.2776  -24.7551   14.6048 O.2     1  UNL1       -0.2521
      4 N          16.3185  -25.2357   13.8729 N.am    1  UNL1       -0.2365
      5 C          16.3928  -24.0733   13.1949 C.2     1  UNL1        0.2696
      6 O          15.4625  -23.2961   13.2203 O.2     1  UNL1       -0.2708
      7 H          15.9156  -27.2965   15.2929 H       1  UNL1        0.1564
      8 H          17.0739  -25.8668   13.8523 H       1  UNL1        0.1592
      9 C          11.6031  -27.7516   17.2120 C.ar    1  UNL1        0.1723
     10 C          12.7693  -27.5679   17.9372 C.ar    1  UNL1        0.0413
     11 C          13.9393  -27.2190   17.2900 C.ar    1  UNL1        0.0180
     12 C          13.9488  -27.0512   15.9118 C.ar    1  UNL1        0.0548
     13 C          12.7822  -27.2345   15.1822 C.ar    1  UNL1        0.0547
     14 C          11.6107  -27.5903   15.8298 C.ar    1  UNL1        0.1734
     15 O          10.4517  -28.0951   17.8506 O.3     1  UNL1       -0.4724
     16 C          10.5432  -28.3705   19.2497 C.3     1  UNL1        0.2056
     17 C          10.0254  -26.1106   20.1813 C.3     1  UNL1        0.0040
     18 C           9.5034  -27.5378   20.0024 C.3     1  UNL1        0.0473
     19 O          10.4679  -27.7758   15.1166 O.3     1  UNL1       -0.4724
     20 C          10.5231  -27.4914   13.7173 C.3     1  UNL1        0.2056
     21 C           9.9321  -28.6655   12.9344 C.3     1  UNL1        0.0473
     22 C          10.9369  -29.8191   12.9090 C.3     1  UNL1        0.0040
     23 C          17.6320  -23.7394   12.4051 C.3     1  UNL1        0.2448
     24 C          17.3009  -23.7420   10.9113 C.3     1  UNL1        0.0575
     25 O          18.1131  -22.4252   12.7919 O.3     1  UNL1       -0.4387
     26 C          19.4093  -22.3294   13.1523 C.2     1  UNL1        0.3571
     27 O          20.2742  -22.2646   12.3001 O.2     1  UNL1       -0.2433
     28 C          19.7755  -22.3033   14.5723 C.ar    1  UNL1        0.1292
     29 C          19.9799  -23.3945   15.3635 C.ar    1  UNL1        0.0039
     30 C          20.3143  -22.9140   16.6520 C.ar    1  UNL1        0.0438
     31 C          20.2898  -21.5293   16.5867 C.ar    1  UNL1        0.0366
     32 N          19.9659  -21.1710   15.3358 N.ar    1  UNL1       -0.3515
     33 C          20.5778  -20.5873   17.7273 C.3     1  UNL1        0.0499
     34 C          19.8728  -24.8383   14.9450 C.3     1  UNL1        0.0329
     35 H          19.8778  -20.2450   15.0132 H       1  UNL1        0.1658
     36 C          20.6228  -23.7262   17.8331 C.2     1  UNL1        0.1743
     37 O          21.7711  -24.0343   18.0744 O.2     1  UNL1       -0.2913
     38 C          19.5133  -24.1782   18.7473 C.3     1  UNL1        0.0773
@<TRIPOS>BOND
     1    17    18    1
     2    18    16    1
     3    16    15    1
     4    15     9    1
     5     9    14   ar
     6     9    10   ar
     7    10    11   ar
     8    11    12   ar
     9    12    13   ar
    10    12     1    1
    11    13    14   ar
    12    14    19    1
    13    19    20    1
    14    20    21    1
    15    21    22    1
    16     1     2   am
    17     2     3    2
    18     2     4   am
    19     4     5   am
    20     5     6    2
    21     5    23    1
    22    23    24    1
    23    23    25    1
    24    25    26    1
    25    26    27    2
    26    26    28    1
    27    28    32   ar
    28    28    29   ar
    29    29    30   ar
    30    29    34    1
    31    30    31   ar
    32    30    36    1
    33    31    32   ar
    34    31    33    1
    35    36    37    2
    36    36    38    1
    37     1     7    1
    38     4     8    1
    39    32    35    1
#	Name:			ZINC24393856
#	Creating user name:	trannguyen
#	Creation time:		Wed Dec  7 14:36:19 2022


#	Modifying user name:	trannguyen
#	Modification time:	Wed Dec  7 14:36:19 2022

@<TRIPOS>MOLECULE
ZINC24393856
 32 34 0 0 0
SMALL
GASTEIGER

@<TRIPOS>ATOM
      1 C          16.2260  -24.1093   13.4548 C.2     1  UNL1        0.2460
      2 O          15.8871  -23.4802   12.4694 O.2     1  UNL1       -0.2701
      3 N          17.5331  -24.2322   13.7594 N.am    1  UNL1       -0.3008
      4 H          17.8071  -24.7410   14.5564 H       1  UNL1        0.1497
      5 C          14.7853  -25.9839   14.0427 C.2     1  UNL1        0.0048
      6 C          15.2146  -24.7320   14.3082 C.2     1  UNL1        0.0577
      7 C          11.8540  -27.7915   16.5242 C.ar    1  UNL1        0.1722
      8 C          13.0894  -27.4409   17.0524 C.ar    1  UNL1        0.0400
      9 C          14.0456  -26.8588   16.2496 C.ar    1  UNL1        0.0033
     10 C          13.7687  -26.6097   14.9005 C.ar    1  UNL1        0.0034
     11 C          12.5212  -26.9586   14.3704 C.ar    1  UNL1        0.0400
     12 C          11.5705  -27.5466   15.1811 C.ar    1  UNL1        0.1724
     13 O          10.3572  -27.8866   14.6695 O.3     1  UNL1       -0.4684
     14 C          10.1969  -27.7790   13.2536 C.3     1  UNL1        0.2526
     15 O          10.9170  -28.3697   17.3196 O.3     1  UNL1       -0.4724
     16 C          11.2519  -28.5401   18.6982 C.3     1  UNL1        0.2056
     17 C          10.2302  -27.8028   19.5662 C.3     1  UNL1        0.0473
     18 C          12.2862  -26.9307   20.6863 C.3     1  UNL1        0.0001
     19 C          10.8857  -26.5681   20.1882 C.3     1  UNL1        0.0038
     20 C          18.5462  -23.6085   12.9044 C.3     1  UNL1        0.0905
     21 C          18.8135  -22.1818   13.3882 C.3     1  UNL1        0.0348
     22 C          20.1494  -22.1376   14.1328 C.3     1  UNL1        0.1019
     23 C          20.7685  -20.7628   14.0287 C.ar    1  UNL1       -0.0003
     24 C          21.1934  -20.0030   12.9651 C.ar    1  UNL1       -0.0026
     25 C          21.7314  -18.7467   13.1832 C.ar    1  UNL1       -0.0002
     26 C          21.8378  -18.2583   14.4727 C.ar    1  UNL1        0.0013
     27 C          21.4112  -19.0165   15.5431 C.ar    1  UNL1        0.0144
     28 C          20.8687  -20.2827   15.3315 C.ar    1  UNL1        0.0467
     29 N          20.3749  -21.2260   16.2335 N.am    1  UNL1       -0.2839
     30 C          19.9354  -22.3367   15.6183 C.2     1  UNL1        0.2298
     31 O          19.4567  -23.3148   16.1524 O.2     1  UNL1       -0.2744
     32 H          20.3513  -21.0929   17.2086 H       1  UNL1        0.1549
@<TRIPOS>BOND
     1    18    19    1
     2    19    17    1
     3    17    16    1
     4    16    15    1
     5    15     7    1
     6     7    12   ar
     7     7     8   ar
     8     8     9   ar
     9     9    10   ar
    10    10    11   ar
    11    10     5    1
    12    11    12   ar
    13    12    13    1
    14    13    14    1
    15     5     6    2
    16     6     1    1
    17     1     2    2
    18     1     3   am
    19     3    20    1
    20    20    21    1
    21    21    22    1
    22    22    30    1
    23    22    23    1
    24    23    28   ar
    25    23    24   ar
    26    24    25   ar
    27    25    26   ar
    28    26    27   ar
    29    27    28   ar
    30    28    29    1
    31    29    30   am
    32    30    31    2
    33     3     4    1
    34    29    32    1
#	Name:			ZINC24550052
#	Creating user name:	trannguyen
#	Creation time:		Wed Dec  7 14:36:20 2022


#	Modifying user name:	trannguyen
#	Modification time:	Wed Dec  7 14:36:20 2022

@<TRIPOS>MOLECULE
ZINC24550052
 33 35 0 0 0
SMALL
GASTEIGER

@<TRIPOS>ATOM
      1 N          18.2525  -24.6235   17.1230 N.am    1  UNL1       -0.3001
      2 C          18.2029  -25.0993   15.8630 C.2     1  UNL1        0.2516
      3 O          19.2223  -25.1795   15.2018 O.2     1  UNL1       -0.2696
      4 H          17.4283  -24.5586   17.6574 H       1  UNL1        0.1498
      5 C          16.9256  -25.5190   15.2900 C.ar    1  UNL1        0.0800
      6 C          16.2499  -25.0029   14.1933 C.ar    1  UNL1       -0.0097
      7 C          15.0580  -25.5873   13.8582 C.ar    1  UNL1        0.0178
      8 C          14.5939  -26.6347   14.6247 C.ar    1  UNL1        0.0805
      9 S          15.8305  -26.8214   15.8253 S.2     1  UNL1       -0.0680
     10 C          16.8076  -23.8489   13.4006 C.3     1  UNL1        0.0318
     11 N          13.4205  -27.3632   14.4725 N.am    1  UNL1       -0.2790
     12 C          12.2679  -26.9013   14.9964 C.2     1  UNL1        0.2260
     13 O          12.2548  -25.8498   15.6007 O.2     1  UNL1       -0.2748
     14 H          13.4312  -28.2166   13.9820 H       1  UNL1        0.1553
     15 C          10.9953  -27.6913   14.8313 C.3     1  UNL1        0.0768
     16 C          11.2876  -29.1996   14.9712 C.3     1  UNL1        0.0091
     17 C          10.3496  -29.8661   13.9345 C.3     1  UNL1        0.0005
     18 C          10.3915  -28.8724   12.7469 C.3     1  UNL1        0.0005
     19 C          10.4255  -27.4834   13.4171 C.3     1  UNL1        0.0091
     20 C          19.5329  -24.2029   17.6973 C.3     1  UNL1        0.0944
     21 C          19.3809  -22.8132   18.3190 C.3     1  UNL1        0.0477
     22 C          21.3491  -19.9209   15.8593 C.ar    1  UNL1        0.1722
     23 C          20.4393  -19.5123   16.8212 C.ar    1  UNL1        0.0397
     24 C          19.8062  -20.4497   17.6161 C.ar    1  UNL1       -0.0009
     25 C          20.0743  -21.7957   17.4500 C.ar    1  UNL1       -0.0173
     26 C          20.9767  -22.2104   16.4883 C.ar    1  UNL1        0.0358
     27 C          21.6148  -21.2762   15.6883 C.ar    1  UNL1        0.1719
     28 O          21.9770  -18.9998   15.0803 O.3     1  UNL1       -0.4724
     29 C          21.8743  -18.2820   12.7749 C.3     1  UNL1        0.0512
     30 C          21.1720  -18.2934   14.1342 C.3     1  UNL1        0.2057
     31 O          22.5027  -21.6824   14.7417 O.3     1  UNL1       -0.4724
     32 C          22.0505  -22.6640   13.8068 C.3     1  UNL1        0.2057
     33 C          21.1595  -21.9963   12.7574 C.3     1  UNL1        0.0512
@<TRIPOS>BOND
     1    29    30    1
     2    30    28    1
     3    28    22    1
     4    22    27   ar
     5    22    23   ar
     6    23    24   ar
     7    24    25   ar
     8    25    26   ar
     9    25    21    1
    10    26    27   ar
    11    27    31    1
    12    31    32    1
    13    32    33    1
    14    21    20    1
    15    20     1    1
    16     1     2   am
    17     2     3    2
    18     2     5    1
    19     5     9   ar
    20     5     6   ar
    21     6     7   ar
    22     6    10    1
    23     7     8   ar
    24     8     9   ar
    25     8    11    1
    26    11    12   am
    27    12    13    2
    28    12    15    1
    29    15    19    1
    30    15    16    1
    31    16    17    1
    32    17    18    1
    33    18    19    1
    34     1     4    1
    35    11    14    1
#	Name:			ZINC24646845
#	Creating user name:	trannguyen
#	Creation time:		Wed Dec  7 14:36:19 2022


#	Modifying user name:	trannguyen
#	Modification time:	Wed Dec  7 14:36:19 2022

@<TRIPOS>MOLECULE
ZINC24646845
 35 37 0 0 0
SMALL
GASTEIGER

@<TRIPOS>ATOM
      1 N          19.4112  -25.4610   14.8667 N.am    1  UNL1       -0.2968
      2 C          20.4754  -26.1695   15.2937 C.2     1  UNL1        0.2461
      3 O          21.0597  -25.8375   16.3069 O.2     1  UNL1       -0.2701
      4 H          18.9380  -25.7297   14.0463 H       1  UNL1        0.1501
      5 C          20.9277  -27.3517   14.5344 C.ar    1  UNL1        0.0549
      6 C          20.6038  -28.6362   14.9794 C.ar    1  UNL1        0.0077
      7 C          21.0231  -29.7362   14.2654 C.ar    1  UNL1        0.0384
      8 C          21.7772  -29.5707   13.1094 C.ar    1  UNL1        0.1572
      9 C          22.1060  -28.2951   12.6664 C.ar    1  UNL1        0.1558
     10 C          21.6858  -27.1896   13.3721 C.ar    1  UNL1        0.0275
     11 S          23.0621  -28.0920   11.2004 S.O2    1  UNL1        0.0632
     12 O          22.2284  -28.4756   10.1155 O.2     1  UNL1       -0.1529
     13 O          23.6628  -26.8068   11.2821 O.2     1  UNL1       -0.1529
     14 N          24.2950  -29.1956   11.2631 N.3     1  UNL1       -0.1767
     15 H          23.8664  -30.1072   11.4238 H       1  UNL1        0.1489
     16 C          25.1996  -29.3492   10.1209 C.3     1  UNL1        0.1234
     17 C          26.5426  -28.6904   10.4417 C.3     1  UNL1        0.1610
     18 O          26.6997  -27.5156    9.6434 O.3     1  UNL1       -0.3496
     19 C          25.7606  -27.4115    8.5713 C.3     1  UNL1        0.1742
     20 O          22.1938  -30.6576   12.4117 O.3     1  UNL1       -0.4701
     21 C          21.1854  -31.4480   11.7790 C.3     1  UNL1        0.2525
     22 C          18.9587  -24.2911   15.6235 C.3     1  UNL1        0.1197
     23 C          19.1738  -22.5979   13.7899 C.ar    1  UNL1        0.1360
     24 C          19.7416  -21.4486   13.2575 C.ar    1  UNL1        0.0355
     25 C          20.6978  -20.7608   13.9707 C.ar    1  UNL1        0.0184
     26 C          21.1111  -21.2054   15.2200 C.ar    1  UNL1        0.1344
     27 C          20.5315  -22.3537   15.7528 C.ar    1  UNL1        0.0370
     28 C          19.5749  -23.0460   15.0395 C.ar    1  UNL1        0.0344
     29 O          22.0704  -20.3900   15.7407 O.3     1  UNL1       -0.4791
     30 C          22.0298  -19.1209   15.0665 C.3     1  UNL1        0.1704
     31 C          21.4724  -19.4917   13.6719 C.3     1  UNL1        0.0730
     32 C          21.0879  -18.1542   15.7872 C.3     1  UNL1        0.0476
     33 O          18.2294  -23.2813   13.0896 O.3     1  UNL1       -0.4757
     34 C          18.2599  -24.9862   11.3769 C.3     1  UNL1        0.0512
     35 C          18.4883  -23.5088   11.7028 C.3     1  UNL1        0.2055
@<TRIPOS>BOND
     1    34    35    1
     2    35    33    1
     3    33    23    1
     4    23    28   ar
     5    23    24   ar
     6    24    25   ar
     7    25    31    1
     8    25    26   ar
     9    26    27   ar
    10    26    29    1
    11    27    28   ar
    12    28    22    1
    13    22     1    1
    14     1     2   am
    15     2     3    2
    16     2     5    1
    17     5    10   ar
    18     5     6   ar
    19     6     7   ar
    20     7     8   ar
    21     8     9   ar
    22     8    20    1
    23     9    10   ar
    24     9    11    1
    25    11    12    2
    26    11    13    2
    27    11    14    1
    28    14    16    1
    29    16    17    1
    30    17    18    1
    31    18    19    1
    32    20    21    1
    33    29    30    1
    34    30    31    1
    35    30    32    1
    36     1     4    1
    37    14    15    1
#	Name:			ZINC24784985
#	Creating user name:	trannguyen
#	Creation time:		Wed Dec  7 14:36:19 2022


#	Modifying user name:	trannguyen
#	Modification time:	Wed Dec  7 14:36:19 2022

@<TRIPOS>MOLECULE
ZINC24784985
 52 57 0 0 0
SMALL
GASTEIGER

@<TRIPOS>ATOM
      1 C          18.7650  -25.5849   18.5002 C.3     1  UNL1        0.0714
      2 C          19.5051  -25.0875   17.2713 C.2     1  UNL1        0.1993
      3 O          20.2397  -25.7231   16.5538 O.2     1  UNL1       -0.2902
      4 C          19.1312  -23.6190   17.1321 C.3     1  UNL1        0.1220
      5 C          18.6777  -23.2294   18.5613 C.3     1  UNL1        0.1101
      6 N          17.9744  -24.4523   19.0291 N.4     1  UNL1        0.2519
      7 H          17.9473  -24.4809   20.0484 H       1  UNL1        0.2035
      8 H          17.0071  -24.4810   18.7067 H       1  UNL1        0.2035
      9 C          20.3446  -22.7905   16.7056 C.3     1  UNL1        0.0353
     10 C          20.4080  -21.4755   17.5140 C.3     1  UNL1        0.0098
     11 C          20.9725  -20.4793   16.4789 C.3     1  UNL1        0.0314
     12 C          20.5674  -21.0340   15.1301 C.ar    1  UNL1       -0.0260
     13 C          20.2066  -22.3624   15.2604 C.ar    1  UNL1       -0.0258
     14 C          19.7979  -23.0777   14.1477 C.ar    1  UNL1       -0.0046
     15 C          19.7491  -22.4685   12.9089 C.ar    1  UNL1       -0.0003
     16 C          20.1098  -21.1406   12.7785 C.ar    1  UNL1       -0.0003
     17 C          20.5182  -20.4252   13.8876 C.ar    1  UNL1       -0.0046
     18 C          20.3606  -19.0927   16.6882 C.3     1  UNL1        0.0891
     19 C          21.3725  -18.0369   16.3245 C.2     1  UNL1        0.2197
     20 O          21.0109  -16.9001   16.1060 O.2     1  UNL1       -0.2753
     21 N          22.6788  -18.3573   16.2364 N.am    1  UNL1       -0.3288
     22 H          22.9723  -19.2801   16.4137 H       1  UNL1        0.1449
     23 H          23.3394  -17.6685   15.9948 H       1  UNL1        0.1449
     24 C          17.8322  -26.7337   18.1118 C.3     1  UNL1        0.0880
     25 C          16.3924  -26.2206   18.0427 C.3     1  UNL1        0.1347
     26 O          15.5572  -27.0327   18.8704 O.3     1  UNL1       -0.3825
     27 H          15.5885  -27.9509   18.5593 H       1  UNL1        0.2104
     28 C          15.8963  -26.2865   16.5969 C.3     1  UNL1        0.1060
     29 N          14.5493  -26.8619   16.5685 N.am    1  UNL1       -0.2696
     30 C          14.3131  -27.9903   15.8704 C.2     1  UNL1        0.4016
     31 O          15.2175  -28.5304   15.2646 O.2     1  UNL1       -0.2264
     32 H          13.8167  -26.4243   17.0595 H       1  UNL1        0.1528
     33 O          13.0752  -28.5190   15.8443 O.3     1  UNL1       -0.4357
     34 C          12.0516  -27.7662   15.1416 C.3     1  UNL1        0.2024
     35 C          12.1103  -28.0453   13.6149 C.3     1  UNL1        0.0784
     36 C          10.6346  -27.7963   13.2134 C.3     1  UNL1        0.1461
     37 O           9.8575  -28.2908   14.3157 O.3     1  UNL1       -0.3498
     38 C          10.6424  -28.2751   15.5137 C.3     1  UNL1        0.1856
     39 C          15.8611  -24.8761   16.0049 C.3     1  UNL1        0.0485
     40 C          17.3489  -24.9742   12.0020 C.ar    1  UNL1       -0.0000
     41 C          16.3914  -24.0439   12.3609 C.ar    1  UNL1       -0.0003
     42 C          15.9101  -24.0121   13.6563 C.ar    1  UNL1       -0.0042
     43 C          16.3858  -24.9109   14.5927 C.ar    1  UNL1       -0.0204
     44 C          17.3471  -25.8377   14.2351 C.ar    1  UNL1       -0.0042
     45 C          17.8253  -25.8723   12.9385 C.ar    1  UNL1       -0.0003
     46 C          19.7632  -26.0608   19.5577 C.3     1  UNL1        0.0832
     47 C          19.2412  -27.3132   20.2135 C.ar    1  UNL1       -0.0162
     48 C          18.2951  -27.2248   21.2175 C.ar    1  UNL1       -0.0041
     49 C          17.8127  -28.3739   21.8157 C.ar    1  UNL1       -0.0003
     50 C          18.2842  -29.6107   21.4173 C.ar    1  UNL1       -0.0000
     51 C          19.2342  -29.6988   20.4169 C.ar    1  UNL1       -0.0003
     52 C          19.7127  -28.5500   19.8151 C.ar    1  UNL1       -0.0041
@<TRIPOS>UNITY_ATOM_ATTR
6 1
charge 1
@<TRIPOS>BOND
     1    40    45   ar
     2    40    41   ar
     3    41    42   ar
     4    42    43   ar
     5    43    44   ar
     6    43    39    1
     7    44    45   ar
     8    39    28    1
     9    28    25    1
    10    28    29    1
    11    25    24    1
    12    25    26    1
    13    24     1    1
    14     1     6    1
    15     1     2    1
    16     1    46    1
    17     2     3    2
    18     2     4    1
    19     4     5    1
    20     4     9    1
    21     5     6    1
    22     9    13    1
    23     9    10    1
    24    10    11    1
    25    11    12    1
    26    11    18    1
    27    12    17   ar
    28    12    13   ar
    29    13    14   ar
    30    14    15   ar
    31    15    16   ar
    32    16    17   ar
    33    18    19    1
    34    19    20    2
    35    19    21   am
    36    46    47    1
    37    47    52   ar
    38    47    48   ar
    39    48    49   ar
    40    49    50   ar
    41    50    51   ar
    42    51    52   ar
    43    29    30   am
    44    30    31    2
    45    30    33    1
    46    33    34    1
    47    34    38    1
    48    34    35    1
    49    35    36    1
    50    36    37    1
    51    37    38    1
    52     6     7    1
    53     6     8    1
    54    21    22    1
    55    21    23    1
    56    26    27    1
    57    29    32    1
#	Name:			ZINC24891531
#	Creating user name:	trannguyen
#	Creation time:		Wed Dec  7 14:36:19 2022


#	Modifying user name:	trannguyen
#	Modification time:	Wed Dec  7 14:36:19 2022

@<TRIPOS>MOLECULE
ZINC24891531
 40 43 0 0 0
SMALL
GASTEIGER

@<TRIPOS>ATOM
      1 C          20.8774  -23.6310   17.1067 C.3     1  UNL1        0.1784
      2 N          20.2357  -24.7029   16.3417 N.am    1  UNL1       -0.2621
      3 C          20.7926  -25.1381   15.1941 C.2     1  UNL1        0.4023
      4 O          21.8269  -24.6415   14.7941 O.2     1  UNL1       -0.2264
      5 H          19.3978  -25.1054   16.6659 H       1  UNL1        0.1532
      6 O          20.2028  -26.1233   14.4909 O.3     1  UNL1       -0.4297
      7 C          18.7519  -26.1155   14.4346 C.3     1  UNL1        0.2367
      8 C          18.2958  -25.1519   13.3695 C.ar    1  UNL1        0.0213
      9 C          18.5794  -25.4057   12.0405 C.ar    1  UNL1       -0.0007
     10 C          18.1568  -24.5243   11.0630 C.ar    1  UNL1       -0.0002
     11 C          17.4592  -23.3841   11.4154 C.ar    1  UNL1       -0.0000
     12 C          17.1805  -23.1274   12.7448 C.ar    1  UNL1       -0.0002
     13 C          17.5985  -24.0115   13.7218 C.ar    1  UNL1       -0.0007
     14 C          21.2793  -24.1526   18.4623 C.2     1  UNL1        0.3358
     15 O          22.2622  -23.7139   19.0113 O.2     1  UNL1       -0.2482
     16 O          20.5455  -25.1045   19.0598 O.3     1  UNL1       -0.4389
     17 C          21.2418  -26.0051   19.9611 C.3     1  UNL1        0.2734
     18 C          22.6309  -29.3245   19.1838 C.ar    1  UNL1        0.2238
     19 N          22.2380  -28.2409   19.8500 N.ar    1  UNL1       -0.1948
     20 C          21.6898  -27.2278   19.2025 C.ar    1  UNL1        0.1889
     21 N          21.5383  -27.2817   17.8907 N.ar    1  UNL1       -0.1951
     22 C          21.9331  -28.3596   17.2171 C.ar    1  UNL1        0.2173
     23 N          22.4802  -29.3823   17.8653 N.ar    1  UNL1       -0.1811
     24 N          21.7742  -28.4151   15.8475 N.pl3   1  UNL1       -0.3273
     25 H          21.3687  -27.6569   15.3679 H       1  UNL1        0.1452
     26 H          22.0661  -29.2129   15.3499 H       1  UNL1        0.1452
     27 C          24.1455  -31.2682   19.1777 C.3     1  UNL1        0.1151
     28 N          23.1985  -30.3840   19.8616 N.pl3   1  UNL1       -0.2746
     29 C          22.8543  -30.6247   21.2651 C.3     1  UNL1        0.1151
     30 C          19.8971  -22.4689   17.2775 C.3     1  UNL1        0.0590
     31 C          20.5089  -21.2095   16.7202 C.ar    1  UNL1       -0.0016
     32 C          21.0227  -20.1907   17.4273 C.ar    1  UNL1        0.0681
     33 N          21.4873  -19.2221   16.5799 N.ar    1  UNL1       -0.3523
     34 C          21.2786  -19.6036   15.2734 C.ar    1  UNL1        0.0563
     35 C          20.6564  -20.8653   15.3040 C.ar    1  UNL1        0.0131
     36 C          20.3220  -21.5060   14.1097 C.ar    1  UNL1        0.0012
     37 C          20.6010  -20.9034   12.9153 C.ar    1  UNL1        0.0001
     38 C          21.2145  -19.6590   12.8798 C.ar    1  UNL1        0.0015
     39 C          21.5574  -19.0109   14.0465 C.ar    1  UNL1        0.0170
     40 H          21.9082  -18.3780   16.8622 H       1  UNL1        0.1660
@<TRIPOS>BOND
     1    27    28    1
     2    28    29    1
     3    28    18    1
     4    18    23   ar
     5    18    19   ar
     6    19    20   ar
     7    20    21   ar
     8    20    17    1
     9    21    22   ar
    10    22    23   ar
    11    22    24    1
    12    17    16    1
    13    16    14    1
    14    14    15    2
    15    14     1    1
    16     1    30    1
    17     1     2    1
    18    30    31    1
    19    31    35   ar
    20    31    32   ar
    21    32    33   ar
    22    33    34   ar
    23    34    39   ar
    24    34    35   ar
    25    35    36   ar
    26    36    37   ar
    27    37    38   ar
    28    38    39   ar
    29     2     3   am
    30     3     4    2
    31     3     6    1
    32     6     7    1
    33     7     8    1
    34     8    13   ar
    35     8     9   ar
    36     9    10   ar
    37    10    11   ar
    38    11    12   ar
    39    12    13   ar
    40    24    25    1
    41    24    26    1
    42    33    40    1
    43     2     5    1
#	Name:			ZINC24959960
#	Creating user name:	trannguyen
#	Creation time:		Wed Dec  7 14:36:20 2022


#	Modifying user name:	trannguyen
#	Modification time:	Wed Dec  7 14:36:20 2022

@<TRIPOS>MOLECULE
ZINC24959960
 31 32 0 0 0
SMALL
GASTEIGER

@<TRIPOS>ATOM
      1 N          21.9449  -26.1017   14.5357 N.am    1  UNL1       -0.2931
      2 C          21.6259  -26.9979   13.5810 C.2     1  UNL1        0.2463
      3 O          20.6027  -27.6479   13.6750 O.2     1  UNL1       -0.2701
      4 H          22.7734  -25.5753   14.4595 H       1  UNL1        0.1502
      5 C          22.5185  -27.1902   12.4213 C.ar    1  UNL1        0.0566
      6 C          23.6299  -26.3615   12.2484 C.ar    1  UNL1        0.0078
      7 C          24.4593  -26.5389   11.1624 C.ar    1  UNL1        0.0404
      8 C          24.1994  -27.5470   10.2438 C.ar    1  UNL1        0.1779
      9 C          23.0952  -28.3808   10.4132 C.ar    1  UNL1        0.1727
     10 C          22.2568  -28.2048   11.4969 C.ar    1  UNL1        0.0446
     11 O          22.8430  -29.3670    9.5114 O.3     1  UNL1       -0.4684
     12 C          22.8090  -30.7067   10.0077 C.3     1  UNL1        0.2526
     13 O          25.0230  -27.7214    9.1783 O.3     1  UNL1       -0.4205
     14 C          24.9847  -26.7213    8.1583 C.3     1  UNL1        0.5087
     15 F          26.2477  -26.1323    8.0352 F       1  UNL1       -0.1550
     16 F          24.6239  -27.3098    6.9414 F       1  UNL1       -0.1550
     17 C          21.0589  -25.9108   15.6867 C.3     1  UNL1        0.1759
     18 N          20.5445  -23.6180   14.9137 N.am    1  UNL1       -0.3008
     19 C          20.0916  -24.7922   15.3959 C.2     1  UNL1        0.2427
     20 O          18.9057  -24.9487   15.5960 O.2     1  UNL1       -0.2732
     21 H          21.5073  -23.4910   14.7512 H       1  UNL1        0.1497
     22 C          19.6043  -22.5306   14.6312 C.3     1  UNL1        0.0939
     23 C          19.2112  -22.5675   13.1530 C.3     1  UNL1        0.0262
     24 C          21.8864  -18.3508   13.0930 C.3     1  UNL1        0.0310
     25 C          21.3478  -19.2088   14.2087 C.ar    1  UNL1       -0.0221
     26 C          21.4514  -18.7829   15.5200 C.ar    1  UNL1       -0.0046
     27 C          20.9570  -19.5696   16.5432 C.ar    1  UNL1       -0.0048
     28 C          20.3555  -20.7807   16.2552 C.ar    1  UNL1       -0.0243
     29 C          20.2562  -21.2087   14.9448 C.ar    1  UNL1       -0.0088
     30 C          20.7498  -20.4213   13.9211 C.ar    1  UNL1       -0.0073
     31 C          19.8118  -21.6361   17.3705 C.3     1  UNL1        0.0308
@<TRIPOS>BOND
     1    24    25    1
     2    25    30   ar
     3    25    26   ar
     4    26    27   ar
     5    27    28   ar
     6    28    29   ar
     7    28    31    1
     8    29    30   ar
     9    29    22    1
    10    22    23    1
    11    22    18    1
    12    18    19   am
    13    19    20    2
    14    19    17    1
    15    17     1    1
    16     1     2   am
    17     2     3    2
    18     2     5    1
    19     5    10   ar
    20     5     6   ar
    21     6     7   ar
    22     7     8   ar
    23     8     9   ar
    24     8    13    1
    25     9    10   ar
    26     9    11    1
    27    11    12    1
    28    13    14    1
    29    14    15    1
    30    14    16    1
    31    18    21    1
    32     1     4    1
#	Name:			ZINC24983694
#	Creating user name:	trannguyen
#	Creation time:		Wed Dec  7 14:36:20 2022


#	Modifying user name:	trannguyen
#	Modification time:	Wed Dec  7 14:36:20 2022

@<TRIPOS>MOLECULE
ZINC24983694
 29 30 0 0 0
SMALL
GASTEIGER

@<TRIPOS>ATOM
      1 C          20.1512  -24.2534   13.2760 C.2     1  UNL1        0.2460
      2 O          18.9475  -24.2888   13.0985 O.2     1  UNL1       -0.2701
      3 N          20.8740  -25.3897   13.2224 N.am    1  UNL1       -0.2992
      4 H          21.8476  -25.3611   13.3661 H       1  UNL1        0.1498
      5 C          20.1357  -21.9824   14.1577 C.2     1  UNL1        0.0077
      6 C          20.8131  -22.9779   13.5475 C.2     1  UNL1        0.0578
      7 C          21.5080  -18.5246   13.6955 C.ar    1  UNL1        0.0002
      8 C          22.0561  -18.2808   14.9446 C.ar    1  UNL1        0.0031
      9 C          21.9824  -19.2360   15.9396 C.ar    1  UNL1        0.0372
     10 C          21.3525  -20.4465   15.6961 C.ar    1  UNL1        0.1467
     11 C          20.8007  -20.7007   14.4306 C.ar    1  UNL1        0.0344
     12 C          20.8830  -19.7237   13.4324 C.ar    1  UNL1        0.0030
     13 O          21.2746  -21.3833   16.6746 O.3     1  UNL1       -0.4045
     14 C          20.1998  -21.2587   17.6081 C.3     1  UNL1        0.5753
     15 F          19.3144  -22.3296   17.4455 F       1  UNL1       -0.1328
     16 F          20.7100  -21.2690   18.9107 F       1  UNL1       -0.1328
     17 F          19.5229  -20.0554   17.3819 F       1  UNL1       -0.1328
     18 C          20.2110  -26.6674   12.9505 C.3     1  UNL1        0.1109
     19 C          21.2664  -27.7523   12.7269 C.3     1  UNL1        0.1097
     20 N          21.7648  -27.6728   11.3516 N.pl3   1  UNL1       -0.3167
     21 H          21.1657  -27.3806   10.6271 H       1  UNL1        0.1482
     22 C          23.0796  -28.0088   11.0705 C.ar    1  UNL1        0.1286
     23 C          23.3496  -29.1267   10.2834 C.ar    1  UNL1        0.0348
     24 C          24.6494  -29.4561   10.0079 C.ar    1  UNL1        0.0147
     25 C          25.6703  -28.6487   10.5329 C.ar    1  UNL1        0.0877
     26 C          25.3267  -27.5470   11.3180 C.ar    1  UNL1        0.1105
     27 N          24.0626  -27.2626   11.5543 N.ar    1  UNL1       -0.2287
     28 C          27.0449  -28.9543   10.2719 C.1     1  UNL1        0.1020
     29 N          28.1351  -29.1967   10.0648 N.1     1  UNL1       -0.1908
@<TRIPOS>BOND
     1     7    12   ar
     2     7     8   ar
     3     8     9   ar
     4     9    10   ar
     5    10    11   ar
     6    10    13    1
     7    11    12   ar
     8    11     5    1
     9     5     6    2
    10     6     1    1
    11     1     2    2
    12     1     3   am
    13     3    18    1
    14    18    19    1
    15    19    20    1
    16    20    22    1
    17    22    27   ar
    18    22    23   ar
    19    23    24   ar
    20    24    25   ar
    21    25    26   ar
    22    25    28    1
    23    26    27   ar
    24    28    29    3
    25    13    14    1
    26    14    15    1
    27    14    16    1
    28    14    17    1
    29     3     4    1
    30    20    21    1
#	Name:			ZINC25033420
#	Creating user name:	trannguyen
#	Creation time:		Wed Dec  7 14:36:19 2022


#	Modifying user name:	trannguyen
#	Modification time:	Wed Dec  7 14:36:19 2022

@<TRIPOS>MOLECULE
ZINC25033420
 37 40 0 0 0
SMALL
GASTEIGER

@<TRIPOS>ATOM
      1 C          17.2315  -24.8425   17.6274 C.ar    1  UNL1        0.1706
      2 N          17.1042  -24.1689   18.7474 N.ar    1  UNL1       -0.1279
      3 N          18.2396  -23.6806   19.0986 N.ar    1  UNL1       -0.1218
      4 C          19.1642  -24.0108   18.2257 C.ar    1  UNL1        0.1974
      5 N          18.5551  -24.7586   17.2542 N.ar    1  UNL1       -0.2693
      6 C          19.1532  -25.3224   16.1186 C.ar    1  UNL1        0.0633
      7 C          19.2960  -24.5689   14.9611 C.ar    1  UNL1        0.0173
      8 C          19.8859  -25.1268   13.8440 C.ar    1  UNL1        0.0015
      9 C          20.3343  -26.4347   13.8775 C.ar    1  UNL1       -0.0002
     10 C          20.1939  -27.1872   15.0288 C.ar    1  UNL1       -0.0028
     11 C          19.6090  -26.6331   16.1508 C.ar    1  UNL1       -0.0056
     12 C          19.4614  -27.4523   17.4070 C.3     1  UNL1        0.0326
     13 C          14.1429  -26.8821   15.5404 C.ar    1  UNL1        0.0478
     14 C          14.6767  -27.4323   16.7005 C.ar    1  UNL1        0.0146
     15 C          15.6785  -26.7734   17.3796 C.ar    1  UNL1        0.0043
     16 C          16.1572  -25.5517   16.9017 C.ar    1  UNL1        0.0364
     17 C          15.6147  -24.9989   15.7398 C.ar    1  UNL1        0.0043
     18 C          14.6174  -25.6658   15.0620 C.ar    1  UNL1        0.0146
     19 N          13.1283  -27.5520   14.8550 N.pl3   1  UNL1       -0.3075
     20 C          12.7905  -28.5058   12.6284 C.3     1  UNL1        0.0232
     21 C          13.4547  -28.6916   13.9941 C.3     1  UNL1        0.0908
     22 C          11.7370  -27.1155   14.9963 C.3     1  UNL1        0.0908
     23 C          10.9858  -28.0921   15.9034 C.3     1  UNL1        0.0232
     24 S          20.8684  -23.5678   18.2894 S.3     1  UNL1       -0.0671
     25 C          20.7202  -21.7706   18.4455 C.3     1  UNL1        0.1307
     26 C          20.9353  -21.1300   17.0984 C.ar    1  UNL1        0.1562
     27 N          20.6559  -19.8499   16.9252 N.ar    1  UNL1       -0.1981
     28 C          20.8444  -19.2806   15.7371 C.ar    1  UNL1        0.2172
     29 N          21.3143  -20.0010   14.7243 N.ar    1  UNL1       -0.1811
     30 C          21.5940  -21.2874   14.9022 C.ar    1  UNL1        0.2237
     31 N          21.4027  -21.8497   16.0937 N.ar    1  UNL1       -0.1977
     32 N          20.5577  -17.9427   15.5586 N.pl3   1  UNL1       -0.3274
     33 H          20.2095  -17.4094   16.3094 H       1  UNL1        0.1452
     34 H          20.7013  -17.5213   14.6805 H       1  UNL1        0.1452
     35 N          22.0818  -22.0399   13.8535 N.pl3   1  UNL1       -0.2746
     36 C          22.9470  -23.1919   14.1187 C.3     1  UNL1        0.1151
     37 C          21.7345  -21.6868   12.4747 C.3     1  UNL1        0.1151
@<TRIPOS>BOND
     1    20    21    1
     2    21    19    1
     3    19    22    1
     4    19    13    1
     5    22    23    1
     6    13    18   ar
     7    13    14   ar
     8    14    15   ar
     9    15    16   ar
    10    16    17   ar
    11    16     1    1
    12    17    18   ar
    13     1     5   ar
    14     1     2   ar
    15     2     3   ar
    16     3     4   ar
    17     4     5   ar
    18     4    24    1
    19     5     6    1
    20     6    11   ar
    21     6     7   ar
    22     7     8   ar
    23     8     9   ar
    24     9    10   ar
    25    10    11   ar
    26    11    12    1
    27    24    25    1
    28    25    26    1
    29    26    31   ar
    30    26    27   ar
    31    27    28   ar
    32    28    29   ar
    33    28    32    1
    34    29    30   ar
    35    30    31   ar
    36    30    35    1
    37    35    36    1
    38    35    37    1
    39    32    33    1
    40    32    34    1
#	Name:			ZINC25140688
#	Creating user name:	trannguyen
#	Creation time:		Wed Dec  7 14:36:19 2022


#	Modifying user name:	trannguyen
#	Modification time:	Wed Dec  7 14:36:19 2022

@<TRIPOS>MOLECULE
ZINC25140688
 32 34 0 0 0
SMALL
GASTEIGER

@<TRIPOS>ATOM
      1 N          20.1244  -26.1122   18.8458 N.am    1  UNL1       -0.3040
      2 C          20.6092  -26.9616   17.9187 C.2     1  UNL1        0.2285
      3 O          21.5195  -26.6152   17.1959 O.2     1  UNL1       -0.2747
      4 H          19.3855  -26.3934   19.4325 H       1  UNL1        0.1494
      5 C          20.6969  -24.7704   18.9808 C.3     1  UNL1        0.0897
      6 C          19.6054  -23.7242   18.7457 C.3     1  UNL1        0.0259
      7 C          19.2810  -23.6525   17.2523 C.3     1  UNL1        0.0281
      8 C          21.0159  -20.1198   15.5857 C.ar    1  UNL1        0.0479
      9 C          20.9656  -21.2898   14.8385 C.ar    1  UNL1        0.0142
     10 C          20.4043  -22.4295   15.3801 C.ar    1  UNL1       -0.0030
     11 C          19.8927  -22.4069   16.6646 C.ar    1  UNL1       -0.0220
     12 C          19.9360  -21.2423   17.4091 C.ar    1  UNL1       -0.0030
     13 C          20.5010  -20.1006   16.8757 C.ar    1  UNL1        0.0142
     14 C          22.2501  -17.9955   15.9134 C.3     1  UNL1        0.1122
     15 N          21.5833  -18.9654   15.0412 N.pl3   1  UNL1       -0.3041
     16 C          21.5116  -18.7246   13.5979 C.3     1  UNL1        0.1122
     17 C          20.0204  -28.3419   17.7798 C.3     1  UNL1        0.1312
     18 C          18.5914  -28.2339   17.3136 C.ar    1  UNL1        0.0766
     19 C          17.6276  -29.0268   17.8425 C.ar    1  UNL1        0.0533
     20 S          16.1973  -28.4630   16.9318 S.2     1  UNL1       -0.0512
     21 C          17.0019  -27.2641   15.9670 C.ar    1  UNL1        0.1652
     22 N          18.2487  -27.3621   16.3854 N.ar    1  UNL1       -0.2278
     23 N          16.4679  -26.4152   15.0046 N.am    1  UNL1       -0.2639
     24 C          16.0238  -25.1923   15.3565 C.2     1  UNL1        0.2325
     25 O          16.0904  -24.8325   16.5128 O.2     1  UNL1       -0.2743
     26 H          16.4139  -26.7072   14.0660 H       1  UNL1        0.1567
     27 C          15.4447  -24.2720   14.3131 C.3     1  UNL1        0.1182
     28 C          16.5090  -23.9223   13.3052 C.ar    1  UNL1        0.0164
     29 C          17.4603  -22.9587   13.3679 C.ar    1  UNL1        0.0032
     30 C          18.3444  -22.8200   12.3143 C.ar    1  UNL1        0.0072
     31 C          18.2272  -23.6447   11.2450 C.ar    1  UNL1        0.0351
     32 S          16.8391  -24.6642   11.7153 S.2     1  UNL1       -0.0903
@<TRIPOS>BOND
     1    14    15    1
     2    15    16    1
     3    15     8    1
     4     8    13   ar
     5     8     9   ar
     6     9    10   ar
     7    10    11   ar
     8    11    12   ar
     9    11     7    1
    10    12    13   ar
    11     7     6    1
    12     6     5    1
    13     5     1    1
    14     1     2   am
    15     2     3    2
    16     2    17    1
    17    17    18    1
    18    18    22   ar
    19    18    19   ar
    20    19    20   ar
    21    20    21   ar
    22    21    22   ar
    23    21    23    1
    24    23    24   am
    25    24    25    2
    26    24    27    1
    27    27    28    1
    28    28    32   ar
    29    28    29   ar
    30    29    30   ar
    31    30    31   ar
    32    31    32   ar
    33     1     4    1
    34    23    26    1
#	Name:			ZINC25390046
#	Creating user name:	trannguyen
#	Creation time:		Wed Dec  7 14:36:19 2022


#	Modifying user name:	trannguyen
#	Modification time:	Wed Dec  7 14:36:19 2022

@<TRIPOS>MOLECULE
ZINC25390046
 38 41 0 0 0
SMALL
GASTEIGER

@<TRIPOS>ATOM
      1 C          15.8486  -25.1328   16.3080 C.3     1  UNL1        0.0395
      2 C          14.9725  -25.8455   14.0128 C.ar    1  UNL1        0.0526
      3 C          15.8328  -25.1543   14.8012 C.ar    1  UNL1       -0.0047
      4 C          16.7379  -24.4292   13.9112 C.ar    1  UNL1        0.0130
      5 C          17.8215  -23.5715   14.1218 C.ar    1  UNL1        0.0012
      6 C          18.4879  -23.0451   13.0518 C.ar    1  UNL1        0.0001
      7 C          18.1022  -23.3607   11.7560 C.ar    1  UNL1        0.0015
      8 C          17.0413  -24.2091   11.5250 C.ar    1  UNL1        0.0170
      9 C          16.3474  -24.7570   12.5988 C.ar    1  UNL1        0.0563
     10 N          15.2725  -25.6141   12.6903 N.ar    1  UNL1       -0.3534
     11 H          14.7914  -26.0025   11.9243 H       1  UNL1        0.1659
     12 C          11.8323  -28.3429   15.4127 C.ar    1  UNL1        0.1387
     13 C          11.6792  -26.9629   15.4292 C.ar    1  UNL1        0.0369
     14 C          12.6956  -26.1493   14.9759 C.ar    1  UNL1        0.0045
     15 C          13.8798  -26.7145   14.4999 C.ar    1  UNL1        0.0155
     16 C          14.0276  -28.1024   14.4796 C.ar    1  UNL1        0.0045
     17 C          13.0089  -28.9090   14.9399 C.ar    1  UNL1        0.0369
     18 C           9.5354  -28.9418   15.2846 C.3     1  UNL1        0.2525
     19 O          10.8281  -29.1415   15.8599 O.3     1  UNL1       -0.4714
     20 C          16.6308  -26.3410   16.8272 C.3     1  UNL1        0.1143
     21 C          17.3882  -25.9524   18.0707 C.2     1  UNL1        0.3174
     22 O          17.0356  -26.3703   19.1481 O.2     1  UNL1       -0.2501
     23 O          18.4546  -25.1421   17.9813 O.3     1  UNL1       -0.4444
     24 C          19.4932  -25.5206   17.0399 C.3     1  UNL1        0.2555
     25 C          20.6464  -24.5186   17.1227 C.3     1  UNL1        0.2526
     26 O          20.8518  -23.9216   15.8407 O.3     1  UNL1       -0.4714
     27 C          21.0479  -22.5772   15.8104 C.ar    1  UNL1        0.1388
     28 C          20.6252  -21.7893   16.8711 C.ar    1  UNL1        0.0383
     29 C          20.8260  -20.4229   16.8381 C.ar    1  UNL1        0.0230
     30 C          21.4479  -19.8405   15.7491 C.ar    1  UNL1        0.1219
     31 C          21.8702  -20.6237   14.6907 C.ar    1  UNL1        0.0230
     32 C          21.6712  -21.9904   14.7187 C.ar    1  UNL1        0.0383
     33 S          21.7022  -18.0975   15.7098 S.O2    1  UNL1        0.0572
     34 O          20.4601  -17.4981   16.0524 O.2     1  UNL1       -0.1532
     35 O          22.8964  -17.8447   16.4374 O.2     1  UNL1       -0.1532
     36 N          22.0098  -17.6828   14.1364 N.3     1  UNL1       -0.2035
     37 H          21.1764  -17.8481   13.5721 H       1  UNL1        0.1442
     38 H          22.7796  -18.2491   13.7798 H       1  UNL1        0.1442
@<TRIPOS>BOND
     1    18    19    1
     2    19    12    1
     3    12    17   ar
     4    12    13   ar
     5    13    14   ar
     6    14    15   ar
     7    15    16   ar
     8    15     2    1
     9    16    17   ar
    10     2    10   ar
    11     2     3   ar
    12     3     4   ar
    13     3     1    1
    14     4     9   ar
    15     4     5   ar
    16     5     6   ar
    17     6     7   ar
    18     7     8   ar
    19     8     9   ar
    20     9    10   ar
    21     1    20    1
    22    20    21    1
    23    21    22    2
    24    21    23    1
    25    23    24    1
    26    24    25    1
    27    25    26    1
    28    26    27    1
    29    27    32   ar
    30    27    28   ar
    31    28    29   ar
    32    29    30   ar
    33    30    31   ar
    34    30    33    1
    35    31    32   ar
    36    33    34    2
    37    33    35    2
    38    33    36    1
    39    10    11    1
    40    36    37    1
    41    36    38    1
#	Name:			ZINC25418934
#	Creating user name:	trannguyen
#	Creation time:		Wed Dec  7 14:36:19 2022


#	Modifying user name:	trannguyen
#	Modification time:	Wed Dec  7 14:36:19 2022

@<TRIPOS>MOLECULE
ZINC25418934
 38 40 0 0 0
SMALL
GASTEIGER

@<TRIPOS>ATOM
      1 N          21.9520  -26.2508   12.5011 N.am    1  UNL1       -0.2740
      2 C          22.1388  -25.7631   13.7436 C.2     1  UNL1        0.2824
      3 O          22.1399  -26.5139   14.6959 O.2     1  UNL1       -0.2684
      4 H          21.9511  -25.6414   11.7280 H       1  UNL1        0.1555
      5 C          22.5714  -28.5114   11.6182 C.ar    1  UNL1        0.0920
      6 C          22.1596  -29.8338   11.5635 C.ar    1  UNL1       -0.0016
      7 C          20.9944  -30.1640   12.2024 C.ar    1  UNL1        0.1025
      8 S          20.4608  -28.6023   12.8769 S.2     1  UNL1       -0.0659
      9 C          21.7617  -27.6056   12.3126 C.ar    1  UNL1        0.0870
     10 C          22.9688  -30.8730   10.8309 C.3     1  UNL1        0.0320
     11 C          23.8108  -28.0750   10.9652 C.2     1  UNL1        0.3426
     12 O          23.7679  -27.5459    9.8712 O.2     1  UNL1       -0.2448
     13 O          24.9973  -28.2606   11.5783 O.3     1  UNL1       -0.4454
     14 C          26.9492  -28.9687   10.3058 C.3     1  UNL1        0.0513
     15 C          26.1796  -27.7802   10.8856 C.3     1  UNL1        0.2089
     16 C          20.3462  -31.4711   12.3023 C.2     1  UNL1        0.3473
     17 O          20.4444  -32.1221   13.3252 O.2     1  UNL1       -0.2443
     18 O          19.6393  -31.9551   11.2599 O.3     1  UNL1       -0.4401
     19 C          19.6270  -33.3735   11.0871 C.3     1  UNL1        0.2352
     20 C          18.2019  -33.8618   11.0428 C.2     1  UNL1        0.0208
     21 C          17.3706  -33.3764   10.1543 C.2     1  UNL1       -0.0011
     22 C          22.3464  -24.2847   13.9495 C.3     1  UNL1        0.1892
     23 N          21.4160  -23.5358   13.0941 N.4     1  UNL1        0.2647
     24 H          21.0843  -24.1464   12.3474 H       1  UNL1        0.2046
     25 H          21.9078  -22.7310   12.7057 H       1  UNL1        0.2046
     26 C          20.2640  -23.0521   13.8667 C.3     1  UNL1        0.1166
     27 C          20.4744  -21.6046   14.2293 C.ar    1  UNL1        0.0325
     28 C          20.7372  -20.6754   13.2401 C.ar    1  UNL1        0.0016
     29 C          20.9260  -19.3469   13.5724 C.ar    1  UNL1       -0.0001
     30 C          20.8611  -18.9492   14.8946 C.ar    1  UNL1       -0.0000
     31 C          20.6030  -19.8791   15.8843 C.ar    1  UNL1       -0.0001
     32 C          20.4102  -21.2069   15.5516 C.ar    1  UNL1        0.0016
     33 C          19.0120  -23.1856   13.0385 C.ar    1  UNL1        0.1121
     34 C          17.7784  -23.1958   13.6620 C.ar    1  UNL1        0.0207
     35 C          16.6326  -23.3130   12.8905 C.ar    1  UNL1        0.0030
     36 C          16.7717  -23.4276   11.5154 C.ar    1  UNL1        0.0207
     37 C          18.0384  -23.4158   10.9635 C.ar    1  UNL1        0.0987
     38 N          19.1064  -23.2967   11.7281 N.ar    1  UNL1       -0.2422
@<TRIPOS>UNITY_ATOM_ATTR
23 1
charge 1
@<TRIPOS>BOND
     1    14    15    1
     2    15    13    1
     3    13    11    1
     4    11    12    2
     5    11     5    1
     6     5     9   ar
     7     5     6   ar
     8     6     7   ar
     9     6    10    1
    10     7     8   ar
    11     7    16    1
    12     8     9   ar
    13     9     1    1
    14     1     2   am
    15     2     3    2
    16     2    22    1
    17    22    23    1
    18    23    26    1
    19    26    27    1
    20    26    33    1
    21    27    32   ar
    22    27    28   ar
    23    28    29   ar
    24    29    30   ar
    25    30    31   ar
    26    31    32   ar
    27    33    38   ar
    28    33    34   ar
    29    34    35   ar
    30    35    36   ar
    31    36    37   ar
    32    37    38   ar
    33    16    17    2
    34    16    18    1
    35    18    19    1
    36    19    20    1
    37    20    21    2
    38     1     4    1
    39    23    24    1
    40    23    25    1
#	Name:			ZINC25444946
#	Creating user name:	trannguyen
#	Creation time:		Wed Dec  7 14:36:20 2022


#	Modifying user name:	trannguyen
#	Modification time:	Wed Dec  7 14:36:20 2022

@<TRIPOS>MOLECULE
ZINC25444946
 34 36 0 0 0
SMALL
GASTEIGER

@<TRIPOS>ATOM
      1 O          20.5996  -23.6114   13.8495 O.3     1  UNL1       -0.4404
      2 C          19.9021  -22.4721   14.0357 C.2     1  UNL1        0.3429
      3 O          18.9503  -22.2182   13.3221 O.2     1  UNL1       -0.2448
      4 C          21.1241  -19.8139   13.3800 C.3     1  UNL1        0.0315
      5 C          20.8801  -20.2565   14.7997 C.ar    1  UNL1       -0.0119
      6 C          21.2026  -19.4724   15.8437 C.ar    1  UNL1        0.0051
      7 S          20.7190  -20.4468   17.2536 S.2     1  UNL1       -0.0767
      8 C          20.1047  -21.8469   16.4408 C.ar    1  UNL1        0.0863
      9 C          20.2906  -21.5408   15.0968 C.ar    1  UNL1        0.0915
     10 C          21.8229  -18.0992   15.8248 C.3     1  UNL1        0.0379
     11 N          19.5613  -22.9952   16.9953 N.am    1  UNL1       -0.2788
     12 C          20.3697  -23.9879   17.4164 C.2     1  UNL1        0.2260
     13 O          21.5727  -23.8765   17.3102 O.2     1  UNL1       -0.2748
     14 H          18.5847  -23.0856   17.0815 H       1  UNL1        0.1553
     15 C          19.7789  -25.2363   18.0193 C.3     1  UNL1        0.0768
     16 C          18.5782  -25.0701   18.9529 C.3     1  UNL1        0.0096
     17 C          19.9482  -25.4416   19.5260 C.3     1  UNL1        0.0096
     18 C          19.9576  -24.6583   13.0749 C.3     1  UNL1        0.2363
     19 C          19.8301  -25.9008   13.9181 C.ar    1  UNL1        0.0415
     20 C          20.8840  -26.7925   14.0454 C.ar    1  UNL1        0.0949
     21 C          20.6841  -27.9266   14.8437 C.ar    1  UNL1        0.0782
     22 S          19.0557  -27.7248   15.4021 S.2     1  UNL1       -0.0663
     23 C          18.6697  -26.1879   14.5855 C.ar    1  UNL1        0.1059
     24 N          21.5635  -28.9471   15.1179 N.pl3   1  UNL1       -0.3519
     25 H          22.4681  -28.9351   14.7294 H       1  UNL1        0.1428
     26 H          21.2888  -29.6898   15.7028 H       1  UNL1        0.1428
     27 C          17.4240  -25.4246   14.6195 C.2     1  UNL1        0.3473
     28 O          17.2788  -24.5332   15.4348 O.2     1  UNL1       -0.2443
     29 O          16.4348  -25.7084   13.7467 O.3     1  UNL1       -0.4410
     30 C          16.2157  -24.7738   12.6881 C.3     1  UNL1        0.2560
     31 C          22.1609  -26.5601   13.3637 C.2     1  UNL1        0.3429
     32 O          22.4134  -27.1469   12.3288 O.2     1  UNL1       -0.2448
     33 O          23.0555  -25.6957   13.8842 O.3     1  UNL1       -0.4413
     34 C          23.9587  -25.0419   12.9540 C.3     1  UNL1        0.2560
@<TRIPOS>BOND
     1     4     5    1
     2     5     9   ar
     3     5     6   ar
     4     6     7   ar
     5     6    10    1
     6     7     8   ar
     7     8     9   ar
     8     8    11    1
     9     9     2    1
    10     2     3    2
    11     2     1    1
    12     1    18    1
    13    18    19    1
    14    19    23   ar
    15    19    20   ar
    16    20    21   ar
    17    20    31    1
    18    21    22   ar
    19    21    24    1
    20    22    23   ar
    21    23    27    1
    22    27    28    2
    23    27    29    1
    24    29    30    1
    25    31    32    2
    26    31    33    1
    27    33    34    1
    28    11    12   am
    29    12    13    2
    30    12    15    1
    31    15    17    1
    32    15    16    1
    33    16    17    1
    34    24    25    1
    35    24    26    1
    36    11    14    1
#	Name:			ZINC25478571
#	Creating user name:	trannguyen
#	Creation time:		Wed Dec  7 14:36:19 2022


#	Modifying user name:	trannguyen
#	Modification time:	Wed Dec  7 14:36:19 2022

@<TRIPOS>MOLECULE
ZINC25478571
 41 42 0 0 0
SMALL
GASTEIGER

@<TRIPOS>ATOM
      1 N          16.1072  -25.6450   14.1223 N.am    1  UNL1       -0.2679
      2 C          14.8421  -25.3680   14.4955 C.2     1  UNL1        0.3102
      3 O          14.5135  -24.2205   14.7243 O.2     1  UNL1       -0.2521
      4 N          13.9415  -26.3636   14.6151 N.am    1  UNL1       -0.2381
      5 C          12.6764  -26.0865   14.9883 C.2     1  UNL1        0.2471
      6 O          12.3486  -24.9419   15.2165 O.2     1  UNL1       -0.2729
      7 H          16.3565  -26.5638   13.8716 H       1  UNL1        0.1564
      8 H          14.2077  -27.2931   14.4298 H       1  UNL1        0.1591
      9 C          18.9658  -22.6064   14.0238 C.ar    1  UNL1        0.1723
     10 C          17.9913  -22.6746   13.0413 C.ar    1  UNL1        0.0413
     11 C          17.0477  -23.6840   13.0709 C.ar    1  UNL1        0.0180
     12 C          17.0677  -24.6253   14.0912 C.ar    1  UNL1        0.0548
     13 C          18.0426  -24.5598   15.0772 C.ar    1  UNL1        0.0547
     14 C          18.9917  -23.5516   15.0448 C.ar    1  UNL1        0.1734
     15 O          19.8976  -21.6154   13.9902 O.3     1  UNL1       -0.4724
     16 C          20.9320  -21.7304   13.0111 C.3     1  UNL1        0.2056
     17 C          21.1385  -19.3913   13.8645 C.3     1  UNL1        0.0040
     18 C          21.5322  -20.3497   12.7387 C.3     1  UNL1        0.0473
     19 O          19.9473  -23.4851   16.0099 O.3     1  UNL1       -0.4724
     20 C          19.5979  -22.8179   17.2242 C.3     1  UNL1        0.2056
     21 C          20.5771  -21.6695   17.4752 C.3     1  UNL1        0.0473
     22 C          19.8478  -20.3337   17.3176 C.3     1  UNL1        0.0040
     23 C          11.6694  -27.1997   15.1219 C.3     1  UNL1        0.1471
     24 C          11.6616  -28.0368   13.8414 C.3     1  UNL1        0.0311
     25 N          12.0296  -28.0502   16.2592 N.pl3   1  UNL1       -0.3270
     26 H          12.8009  -28.6586   16.1940 H       1  UNL1        0.1472
     27 C          11.2774  -27.9978   17.4378 C.ar    1  UNL1        0.0450
     28 C          11.5139  -26.9946   18.3686 C.ar    1  UNL1        0.0156
     29 C          10.7718  -26.9434   19.5318 C.ar    1  UNL1        0.0160
     30 C           9.7890  -27.8944   19.7709 C.ar    1  UNL1        0.0516
     31 C           9.5561  -28.9006   18.8430 C.ar    1  UNL1        0.0160
     32 C          10.2946  -28.9493   17.6774 C.ar    1  UNL1        0.0156
     33 N           9.0357  -27.8423   20.9521 N.am    1  UNL1       -0.2683
     34 C           9.5250  -28.3784   22.0876 C.2     1  UNL1        0.3047
     35 O          10.5747  -28.9918   22.0672 O.2     1  UNL1       -0.2525
     36 N           8.8481  -28.2394   23.2448 N.am    1  UNL1       -0.2846
     37 H           8.1492  -27.4140   20.9521 H       1  UNL1        0.1564
     38 H           7.9982  -27.7428   23.2613 H       1  UNL1        0.1513
     39 C           9.3770  -28.8273   24.4780 C.3     1  UNL1        0.1174
     40 C           9.6853  -27.7312   25.4651 C.2     1  UNL1       -0.0049
     41 C           8.7463  -26.8923   25.8268 C.2     1  UNL1       -0.0032
@<TRIPOS>BOND
     1    17    18    1
     2    18    16    1
     3    16    15    1
     4    15     9    1
     5     9    14   ar
     6     9    10   ar
     7    10    11   ar
     8    11    12   ar
     9    12    13   ar
    10    12     1    1
    11    13    14   ar
    12    14    19    1
    13    19    20    1
    14    20    21    1
    15    21    22    1
    16     1     2   am
    17     2     3    2
    18     2     4   am
    19     4     5   am
    20     5     6    2
    21     5    23    1
    22    23    24    1
    23    23    25    1
    24    25    27    1
    25    27    32   ar
    26    27    28   ar
    27    28    29   ar
    28    29    30   ar
    29    30    31   ar
    30    30    33    1
    31    31    32   ar
    32    33    34   am
    33    34    35    2
    34    34    36   am
    35    36    39    1
    36    39    40    1
    37    40    41    2
    38     1     7    1
    39     4     8    1
    40    25    26    1
    41    33    37    1
    42    36    38    1
#	Name:			ZINC25574707
#	Creating user name:	trannguyen
#	Creation time:		Wed Dec  7 14:36:19 2022


#	Modifying user name:	trannguyen
#	Modification time:	Wed Dec  7 14:36:19 2022

@<TRIPOS>MOLECULE
ZINC25574707
 32 33 0 0 0
SMALL
GASTEIGER

@<TRIPOS>ATOM
      1 C          17.2281  -24.7240   12.8885 C.3     1  UNL1        0.2929
      2 C          15.9074  -24.6480   13.6104 C.2     1  UNL1        0.2739
      3 O          15.3215  -23.5898   13.6926 O.2     1  UNL1       -0.2706
      4 N          15.3776  -25.7564   14.1647 N.am    1  UNL1       -0.2366
      5 C          14.1966  -25.6884   14.8103 C.2     1  UNL1        0.3067
      6 O          13.6092  -24.6276   14.8927 O.2     1  UNL1       -0.2524
      7 N          13.6668  -26.7968   15.3647 N.am    1  UNL1       -0.2865
      8 H          15.8534  -26.6157   14.0980 H       1  UNL1        0.1592
      9 H          14.1426  -27.6561   15.2980 H       1  UNL1        0.1512
     10 C          12.3830  -26.7229   16.0664 C.3     1  UNL1        0.0956
     11 C          12.5199  -27.3635   17.4491 C.3     1  UNL1        0.0262
     12 C          11.3339  -27.4590   15.2735 C.ar    1  UNL1       -0.0045
     13 C          11.1196  -27.1386   13.9460 C.ar    1  UNL1       -0.0027
     14 C          10.1603  -27.8168   13.2174 C.ar    1  UNL1       -0.0003
     15 C           9.4091  -28.8090   13.8190 C.ar    1  UNL1       -0.0000
     16 C           9.6197  -29.1258   15.1479 C.ar    1  UNL1       -0.0003
     17 C          10.5820  -28.4506   15.8753 C.ar    1  UNL1       -0.0027
     18 O          18.1602  -23.7836   13.4843 O.3     1  UNL1       -0.4358
     19 C          19.0367  -23.1890   12.6597 C.2     1  UNL1        0.3625
     20 O          18.7163  -22.9272   11.5245 O.2     1  UNL1       -0.2459
     21 C          20.4204  -22.8481   13.1497 C.3     1  UNL1        0.3141
     22 O          20.5094  -23.1170   14.5504 O.3     1  UNL1       -0.4642
     23 C          21.0159  -18.3182   15.2839 C.3     1  UNL1        0.0311
     24 C          20.6727  -19.6979   15.7834 C.ar    1  UNL1       -0.0189
     25 C          20.2805  -19.8794   17.0970 C.ar    1  UNL1       -0.0044
     26 C          19.9655  -21.1439   17.5584 C.ar    1  UNL1       -0.0016
     27 C          20.0414  -22.2299   16.7075 C.ar    1  UNL1        0.0115
     28 C          20.4340  -22.0504   15.3893 C.ar    1  UNL1        0.1350
     29 C          20.7552  -20.7810   14.9302 C.ar    1  UNL1        0.0323
     30 C          19.6973  -23.6079   17.2110 C.3     1  UNL1        0.0253
     31 C          20.8805  -24.1728   17.9997 C.3     1  UNL1        0.0048
     32 C          18.4701  -23.5267   18.1211 C.3     1  UNL1        0.0048
@<TRIPOS>BOND
     1    23    24    1
     2    24    29   ar
     3    24    25   ar
     4    25    26   ar
     5    26    27   ar
     6    27    28   ar
     7    27    30    1
     8    28    29   ar
     9    28    22    1
    10    22    21    1
    11    21    19    1
    12    19    20    2
    13    19    18    1
    14    18     1    1
    15     1     2    1
    16     2     3    2
    17     2     4   am
    18     4     5   am
    19     5     6    2
    20     5     7   am
    21     7    10    1
    22    10    11    1
    23    10    12    1
    24    12    17   ar
    25    12    13   ar
    26    13    14   ar
    27    14    15   ar
    28    15    16   ar
    29    16    17   ar
    30    30    31    1
    31    30    32    1
    32     4     8    1
    33     7     9    1
#	Name:			ZINC25618243
#	Creating user name:	trannguyen
#	Creation time:		Wed Dec  7 14:36:19 2022


#	Modifying user name:	trannguyen
#	Modification time:	Wed Dec  7 14:36:19 2022

@<TRIPOS>MOLECULE
ZINC25618243
 35 37 0 0 0
SMALL
GASTEIGER

@<TRIPOS>ATOM
      1 N          15.6136  -26.2467   14.4095 N.am    1  UNL1       -0.2679
      2 C          14.3300  -25.8879   14.6099 C.2     1  UNL1        0.3102
      3 O          14.0551  -24.7323   14.8673 O.2     1  UNL1       -0.2521
      4 N          13.3512  -26.8105   14.5247 N.am    1  UNL1       -0.2387
      5 C          12.0677  -26.4516   14.7251 C.2     1  UNL1        0.2392
      6 O          11.7935  -25.2989   14.9819 O.2     1  UNL1       -0.2737
      7 H          15.8451  -27.1946   14.2785 H       1  UNL1        0.1564
      8 H          13.5738  -27.7465   14.3161 H       1  UNL1        0.1591
      9 C          18.6047  -23.3376   14.3388 C.ar    1  UNL1        0.1723
     10 C          17.6648  -23.3915   13.3222 C.ar    1  UNL1        0.0413
     11 C          16.6776  -24.3584   13.3426 C.ar    1  UNL1        0.0180
     12 C          16.6186  -25.2707   14.3875 C.ar    1  UNL1        0.0548
     13 C          17.5587  -25.2195   15.4075 C.ar    1  UNL1        0.0547
     14 C          18.5517  -24.2542   15.3844 C.ar    1  UNL1        0.1734
     15 O          19.5797  -22.3889   14.3142 O.3     1  UNL1       -0.4724
     16 C          20.0626  -21.9880   13.0306 C.3     1  UNL1        0.2056
     17 C          21.6015  -20.4355   14.2407 C.3     1  UNL1        0.0040
     18 C          20.5808  -20.5504   13.1068 C.3     1  UNL1        0.0473
     19 O          19.4734  -24.2018   16.3829 O.3     1  UNL1       -0.4724
     20 C          19.2179  -23.2922   17.4549 C.3     1  UNL1        0.2056
     21 C          20.4279  -22.3756   17.6456 C.3     1  UNL1        0.0473
     22 C          19.9818  -20.9153   17.5489 C.3     1  UNL1        0.0040
     23 C          10.9731  -27.4832   14.6299 C.3     1  UNL1        0.1281
     24 C          10.7324  -27.8372   13.1611 C.3     1  UNL1        0.0217
     25 S          11.4655  -28.9707   15.5360 S.3     1  UNL1       -0.1093
     26 C          10.1329  -29.0853   16.6830 C.ar    1  UNL1        0.0087
     27 N          10.2385  -29.1468   18.0449 N.ar    1  UNL1       -0.2443
     28 C           8.9457  -29.2234   18.5139 C.ar    1  UNL1        0.1479
     29 N           8.1541  -29.2051   17.4642 N.ar    1  UNL1       -0.3479
     30 N           8.8535  -29.1275   16.3889 N.ar    1  UNL1       -0.5546
     31 C           8.5292  -29.3095   19.9229 C.ar    1  UNL1        0.0637
     32 C           8.9477  -28.5632   20.9954 C.ar    1  UNL1        0.0100
     33 C           8.4065  -28.8251   22.2340 C.ar    1  UNL1        0.0076
     34 C           7.4875  -29.8173   22.3588 C.ar    1  UNL1        0.0355
     35 S           7.3535  -30.4175   20.6828 S.2     1  UNL1       -0.0834
@<TRIPOS>UNITY_ATOM_ATTR
30 1
charge -1
@<TRIPOS>BOND
     1    17    18    1
     2    18    16    1
     3    16    15    1
     4    15     9    1
     5     9    14   ar
     6     9    10   ar
     7    10    11   ar
     8    11    12   ar
     9    12    13   ar
    10    12     1    1
    11    13    14   ar
    12    14    19    1
    13    19    20    1
    14    20    21    1
    15    21    22    1
    16     1     2   am
    17     2     3    2
    18     2     4   am
    19     4     5   am
    20     5     6    2
    21     5    23    1
    22    23    24    1
    23    23    25    1
    24    25    26    1
    25    26    27   ar
    26    26    30   ar
    27    27    28   ar
    28    28    31    1
    29    28    29   ar
    30    29    30   ar
    31    31    35   ar
    32    31    32   ar
    33    32    33   ar
    34    33    34   ar
    35    34    35   ar
    36     1     7    1
    37     4     8    1
#	Name:			ZINC25618248
#	Creating user name:	trannguyen
#	Creation time:		Wed Dec  7 14:36:20 2022


#	Modifying user name:	trannguyen
#	Modification time:	Wed Dec  7 14:36:20 2022

@<TRIPOS>MOLECULE
ZINC25618248
 35 37 0 0 0
SMALL
GASTEIGER

@<TRIPOS>ATOM
      1 N          17.0744  -25.7077   14.1586 N.am    1  UNL1       -0.2679
      2 C          15.7523  -25.6164   14.4037 C.2     1  UNL1        0.3102
      3 O          15.2648  -24.5482   14.7177 O.2     1  UNL1       -0.2521
      4 N          14.9707  -26.7095   14.3005 N.am    1  UNL1       -0.2387
      5 C          13.6486  -26.6181   14.5456 C.2     1  UNL1        0.2392
      6 O          13.1623  -25.5527   14.8588 O.2     1  UNL1       -0.2737
      7 H          17.4826  -26.5858   13.9810 H       1  UNL1        0.1564
      8 H          15.3655  -27.5747   14.0461 H       1  UNL1        0.1591
      9 C          19.4359  -22.2671   14.1468 C.ar    1  UNL1        0.1723
     10 C          18.5092  -22.4764   13.1382 C.ar    1  UNL1        0.0413
     11 C          17.7308  -23.6182   13.1392 C.ar    1  UNL1        0.0180
     12 C          17.8680  -24.5529   14.1566 C.ar    1  UNL1        0.0548
     13 C          18.7955  -24.3464   15.1685 C.ar    1  UNL1        0.0547
     14 C          19.5796  -23.2047   15.1649 C.ar    1  UNL1        0.1734
     15 O          20.2057  -21.1451   14.1413 O.3     1  UNL1       -0.4724
     16 C          20.5791  -20.6206   12.8656 C.3     1  UNL1        0.2056
     17 C          21.1408  -18.7419   14.4139 C.3     1  UNL1        0.0040
     18 C          21.4556  -19.3818   13.0602 C.3     1  UNL1        0.0473
     19 O          20.4885  -23.0000   16.1555 O.3     1  UNL1       -0.4724
     20 C          19.9903  -22.5100   17.4020 C.3     1  UNL1        0.2056
     21 C          20.6761  -21.1847   17.7397 C.3     1  UNL1        0.0473
     22 C          19.7328  -20.0248   17.4145 C.3     1  UNL1        0.0040
     23 C          12.7746  -27.8404   14.4302 C.3     1  UNL1        0.1281
     24 C          13.2479  -28.6966   13.2538 C.3     1  UNL1        0.0217
     25 S          11.0595  -27.3320   14.1548 S.3     1  UNL1       -0.1093
     26 C          10.2828  -28.1193   15.5265 C.ar    1  UNL1        0.0087
     27 N          10.7139  -28.0987   16.8238 N.ar    1  UNL1       -0.2443
     28 C           9.7970  -28.8443   17.5310 C.ar    1  UNL1        0.1479
     29 N           8.8948  -29.2617   16.6703 N.ar    1  UNL1       -0.3479
     30 N           9.1820  -28.8351   15.4927 N.ar    1  UNL1       -0.5546
     31 C           9.8221  -29.1214   18.9763 C.ar    1  UNL1        0.0637
     32 C           9.0615  -28.5694   19.9759 C.ar    1  UNL1        0.0100
     33 C           9.2623  -28.9943   21.2700 C.ar    1  UNL1        0.0076
     34 C          10.2105  -29.9341   21.5190 C.ar    1  UNL1        0.0355
     35 S          10.8558  -30.2577   19.8863 S.2     1  UNL1       -0.0834
@<TRIPOS>UNITY_ATOM_ATTR
30 1
charge -1
@<TRIPOS>BOND
     1    17    18    1
     2    18    16    1
     3    16    15    1
     4    15     9    1
     5     9    14   ar
     6     9    10   ar
     7    10    11   ar
     8    11    12   ar
     9    12    13   ar
    10    12     1    1
    11    13    14   ar
    12    14    19    1
    13    19    20    1
    14    20    21    1
    15    21    22    1
    16     1     2   am
    17     2     3    2
    18     2     4   am
    19     4     5   am
    20     5     6    2
    21     5    23    1
    22    23    24    1
    23    23    25    1
    24    25    26    1
    25    26    27   ar
    26    26    30   ar
    27    27    28   ar
    28    28    31    1
    29    28    29   ar
    30    29    30   ar
    31    31    35   ar
    32    31    32   ar
    33    32    33   ar
    34    33    34   ar
    35    34    35   ar
    36     1     7    1
    37     4     8    1
#	Name:			ZINC25695991
#	Creating user name:	trannguyen
#	Creation time:		Wed Dec  7 14:36:20 2022


#	Modifying user name:	trannguyen
#	Modification time:	Wed Dec  7 14:36:20 2022

@<TRIPOS>MOLECULE
ZINC25695991
 32 34 0 0 0
SMALL
GASTEIGER

@<TRIPOS>ATOM
      1 S          17.7074  -23.2015   13.1483 S.3     1  UNL1       -0.0840
      2 C          16.2741  -23.9863   13.8074 C.ar    1  UNL1        0.1607
      3 N          15.1351  -23.4511   14.2026 N.ar    1  UNL1       -0.1332
      4 N          14.1331  -24.2574   14.6911 N.ar    1  UNL1       -0.1252
      5 C          14.3158  -25.5612   14.7621 C.ar    1  UNL1        0.1831
      6 S          15.9719  -25.7204   14.1117 S.2     1  UNL1       -0.0245
      7 N          13.4494  -26.5486   15.2166 N.pl3   1  UNL1       -0.3078
      8 H          13.6861  -27.0854   16.0072 H       1  UNL1        0.1490
      9 C          12.1841  -26.7905   14.5190 C.3     1  UNL1        0.1158
     10 C          11.2987  -27.6618   15.3721 C.ar    1  UNL1       -0.0024
     11 C          10.2013  -28.2892   14.8117 C.ar    1  UNL1        0.0005
     12 C           9.3914  -29.0930   15.5903 C.ar    1  UNL1        0.0366
     13 C           9.6734  -29.2615   16.9382 C.ar    1  UNL1        0.1387
     14 C          10.7718  -28.6265   17.4994 C.ar    1  UNL1        0.0366
     15 C          11.5819  -27.8282   16.7152 C.ar    1  UNL1        0.0005
     16 O           8.8753  -30.0477   17.7075 O.3     1  UNL1       -0.4714
     17 C           9.2933  -30.2749   19.0550 C.3     1  UNL1        0.2525
     18 C          18.8923  -24.5585   12.9361 C.3     1  UNL1        0.0972
     19 C          20.1226  -24.3024   13.8090 C.3     1  UNL1        0.1652
     20 O          20.5490  -25.5302   14.4029 O.3     1  UNL1       -0.3798
     21 H          19.8336  -25.8904   14.9500 H       1  UNL1        0.2105
     22 C          19.7677  -23.3000   14.9090 C.3     1  UNL1        0.2352
     23 O          20.9568  -22.6503   15.3631 O.3     1  UNL1       -0.4735
     24 C          21.7305  -18.3444   13.1993 C.3     1  UNL1        0.0308
     25 C          21.3025  -19.1617   14.3909 C.ar    1  UNL1       -0.0229
     26 C          20.8862  -18.5297   15.5484 C.ar    1  UNL1       -0.0047
     27 C          20.4984  -19.2765   16.6452 C.ar    1  UNL1       -0.0016
     28 C          20.5210  -20.6567   16.5857 C.ar    1  UNL1        0.0118
     29 C          20.9333  -21.2929   15.4241 C.ar    1  UNL1        0.1303
     30 C          21.3220  -20.5410   14.3246 C.ar    1  UNL1        0.0079
     31 C          21.7709  -21.2291   13.0611 C.3     1  UNL1        0.0339
     32 C          20.0977  -21.4701   17.7816 C.3     1  UNL1        0.0342
@<TRIPOS>BOND
     1    24    25    1
     2    25    30   ar
     3    25    26   ar
     4    26    27   ar
     5    27    28   ar
     6    28    29   ar
     7    28    32    1
     8    29    30   ar
     9    29    23    1
    10    30    31    1
    11    23    22    1
    12    22    19    1
    13    19    18    1
    14    19    20    1
    15    18     1    1
    16     1     2    1
    17     2     6   ar
    18     2     3   ar
    19     3     4   ar
    20     4     5   ar
    21     5     6   ar
    22     5     7    1
    23     7     9    1
    24     9    10    1
    25    10    15   ar
    26    10    11   ar
    27    11    12   ar
    28    12    13   ar
    29    13    14   ar
    30    13    16    1
    31    14    15   ar
    32    16    17    1
    33     7     8    1
    34    20    21    1
#	Name:			ZINC25783361
#	Creating user name:	trannguyen
#	Creation time:		Wed Dec  7 14:36:19 2022


#	Modifying user name:	trannguyen
#	Modification time:	Wed Dec  7 14:36:19 2022

@<TRIPOS>MOLECULE
ZINC25783361
 40 42 0 0 0
SMALL
GASTEIGER

@<TRIPOS>ATOM
      1 C          21.8482  -26.8208   12.3187 C.ar    1  UNL1        0.0727
      2 C          22.2748  -26.2115   13.4852 C.ar    1  UNL1        0.0200
      3 C          21.1769  -25.5700   14.0501 C.ar    1  UNL1        0.0200
      4 C          20.0888  -25.8018   13.2279 C.ar    1  UNL1        0.0727
      5 N          20.5079  -26.5684   12.1701 N.ar    1  UNL1       -0.3509
      6 H          19.9420  -26.8843   11.4289 H       1  UNL1        0.1660
      7 C          22.6879  -29.0019   11.2834 C.ar    1  UNL1        0.0902
      8 C          23.6380  -29.3269   10.2961 C.ar    1  UNL1        0.0078
      9 C          24.1721  -28.1565    9.8379 C.ar    1  UNL1        0.1295
     10 N          23.5890  -27.1072   10.5187 N.ar    1  UNL1       -0.3470
     11 C          22.6821  -27.6052   11.4035 C.ar    1  UNL1        0.0785
     12 C          23.9970  -30.7135    9.8274 C.3     1  UNL1        0.0330
     13 H          23.7954  -26.1537   10.3861 H       1  UNL1        0.1662
     14 C          21.8635  -29.9479   12.0473 C.2     1  UNL1        0.3424
     15 O          20.7693  -30.2751   11.6304 O.2     1  UNL1       -0.2449
     16 O          22.3226  -30.4575   13.2081 O.3     1  UNL1       -0.4454
     17 C          21.1178  -29.3650   15.0206 C.3     1  UNL1        0.0513
     18 C          21.3493  -30.6743   14.2635 C.3     1  UNL1        0.2089
     19 C          25.1994  -28.0352    8.8005 C.2     1  UNL1        0.3568
     20 O          24.9024  -28.1834    7.6303 O.2     1  UNL1       -0.2433
     21 O          26.4748  -27.7592    9.1430 O.3     1  UNL1       -0.4444
     22 C          26.8640  -28.0538   10.4861 C.3     1  UNL1        0.2089
     23 C          27.4430  -29.4685   10.5507 C.3     1  UNL1        0.0513
     24 C          18.7246  -25.3134   13.4485 C.ar    1  UNL1        0.0785
     25 C          18.1287  -24.2135   12.8159 C.ar    1  UNL1        0.0902
     26 C          16.8186  -24.1071   13.3211 C.ar    1  UNL1        0.0078
     27 C          16.6468  -25.1088   14.2333 C.ar    1  UNL1        0.1295
     28 N          17.8123  -25.8437   14.3089 N.ar    1  UNL1       -0.3470
     29 C          15.7947  -23.0724   12.9309 C.3     1  UNL1        0.0330
     30 H          17.9602  -26.6243   14.8903 H       1  UNL1        0.1662
     31 C          15.4270  -25.3609   15.0045 C.2     1  UNL1        0.3568
     32 O          15.4595  -25.3338   16.2201 O.2     1  UNL1       -0.2433
     33 O          14.2677  -25.6235   14.3665 O.3     1  UNL1       -0.4444
     34 C          14.0082  -26.9871   14.0270 C.3     1  UNL1        0.2089
     35 C          12.5687  -27.3417   14.4048 C.3     1  UNL1        0.0513
     36 C          18.7520  -23.3395   11.8129 C.2     1  UNL1        0.3424
     37 O          18.3336  -23.3293   10.6714 O.2     1  UNL1       -0.2449
     38 O          19.7878  -22.5486   12.1583 O.3     1  UNL1       -0.4454
     39 C          19.6195  -21.7195   13.3383 C.3     1  UNL1        0.2089
     40 C          20.8223  -20.7847   13.4807 C.3     1  UNL1        0.0513
@<TRIPOS>BOND
     1    17    18    1
     2    18    16    1
     3    16    14    1
     4    14    15    2
     5    14     7    1
     6     7    11   ar
     7     7     8   ar
     8     8     9   ar
     9     8    12    1
    10     9    10   ar
    11     9    19    1
    12    10    11   ar
    13    11     1    1
    14     1     5   ar
    15     1     2   ar
    16     2     3   ar
    17     3     4   ar
    18     4     5   ar
    19     4    24    1
    20    24    28   ar
    21    24    25   ar
    22    25    26   ar
    23    25    36    1
    24    26    27   ar
    25    26    29    1
    26    27    28   ar
    27    27    31    1
    28    31    32    2
    29    31    33    1
    30    33    34    1
    31    34    35    1
    32    36    37    2
    33    36    38    1
    34    38    39    1
    35    39    40    1
    36    19    20    2
    37    19    21    1
    38    21    22    1
    39    22    23    1
    40    10    13    1
    41     5     6    1
    42    28    30    1
#	Name:			ZINC25829333
#	Creating user name:	trannguyen
#	Creation time:		Wed Dec  7 14:36:20 2022


#	Modifying user name:	trannguyen
#	Modification time:	Wed Dec  7 14:36:20 2022

@<TRIPOS>MOLECULE
ZINC25829333
 40 44 0 0 0
SMALL
GASTEIGER

@<TRIPOS>ATOM
      1 C          17.5131  -24.4208   19.1404 C.3     1  UNL1        0.2737
      2 C          19.9829  -22.2314   17.5101 C.ar    1  UNL1        0.2243
      3 N          18.8281  -22.7622   17.9066 N.ar    1  UNL1       -0.1947
      4 C          18.8225  -23.8232   18.6941 C.ar    1  UNL1        0.1889
      5 N          19.9622  -24.3614   19.0917 N.ar    1  UNL1       -0.1951
      6 C          21.1208  -23.8365   18.6996 C.ar    1  UNL1        0.2173
      7 N          21.1306  -22.7729   17.9032 N.ar    1  UNL1       -0.1810
      8 N          22.3102  -24.3989   19.1158 N.pl3   1  UNL1       -0.3273
      9 H          22.3023  -25.1870   19.7058 H       1  UNL1        0.1452
     10 H          23.1668  -24.0120   18.8226 H       1  UNL1        0.1452
     11 N          19.9877  -21.1229   16.6867 N.pl3   1  UNL1       -0.2801
     12 H          19.7158  -20.2455   17.0408 H       1  UNL1        0.1552
     13 C          21.4798  -20.5364   14.8730 C.ar    1  UNL1        0.1520
     14 C          21.8588  -20.6582   13.5462 C.ar    1  UNL1        0.0382
     15 C          21.1524  -21.4917   12.6987 C.ar    1  UNL1        0.0032
     16 C          20.0605  -22.1975   13.1691 C.ar    1  UNL1        0.0015
     17 C          19.6723  -22.0771   14.4900 C.ar    1  UNL1        0.0178
     18 C          20.3794  -21.2469   15.3476 C.ar    1  UNL1        0.0849
     19 C          22.1862  -18.3267   15.3963 C.3     1  UNL1        0.2525
     20 O          22.1767  -19.7209   15.7089 O.3     1  UNL1       -0.4702
     21 O          16.7522  -24.8424   17.9778 O.3     1  UNL1       -0.4370
     22 C          17.2299  -25.8928   17.2820 C.2     1  UNL1        0.3428
     23 O          17.3601  -26.9723   17.8245 O.2     1  UNL1       -0.2448
     24 C          17.5947  -25.7324   15.8625 C.ar    1  UNL1        0.0891
     25 C          16.8382  -24.9066   15.0461 C.ar    1  UNL1        0.0077
     26 C          17.1932  -24.7537   13.6985 C.ar    1  UNL1        0.0003
     27 C          16.4503  -23.9195   12.8430 C.ar    1  UNL1        0.0000
     28 C          16.8154  -23.7960   11.5381 C.ar    1  UNL1        0.0000
     29 C          17.9172  -24.4848   11.0330 C.ar    1  UNL1        0.0000
     30 C          18.6597  -25.3006   11.8299 C.ar    1  UNL1        0.0000
     31 C          18.3148  -25.4549   13.1841 C.ar    1  UNL1        0.0012
     32 C          19.0626  -26.2903   14.0296 C.ar    1  UNL1        0.0149
     33 C          18.7095  -26.4256   15.3415 C.ar    1  UNL1        0.0565
     34 N          19.4568  -27.2570   16.1752 N.am    1  UNL1       -0.2838
     35 C          20.6933  -26.8870   16.5632 C.2     1  UNL1        0.2256
     36 O          21.1155  -25.7872   16.2750 O.2     1  UNL1       -0.2748
     37 H          19.0811  -28.1144   16.4804 H       1  UNL1        0.1549
     38 C          21.5512  -27.8398   17.3552 C.3     1  UNL1        0.0768
     39 C          20.8575  -29.0326   18.0161 C.3     1  UNL1        0.0096
     40 C          21.3593  -27.8686   18.8729 C.3     1  UNL1        0.0096
@<TRIPOS>BOND
     1    19    20    1
     2    20    13    1
     3    13    18   ar
     4    13    14   ar
     5    14    15   ar
     6    15    16   ar
     7    16    17   ar
     8    17    18   ar
     9    18    11    1
    10    11     2    1
    11     2     7   ar
    12     2     3   ar
    13     3     4   ar
    14     4     5   ar
    15     4     1    1
    16     5     6   ar
    17     6     7   ar
    18     6     8    1
    19     1    21    1
    20    21    22    1
    21    22    23    2
    22    22    24    1
    23    24    33   ar
    24    24    25   ar
    25    25    26   ar
    26    26    31   ar
    27    26    27   ar
    28    27    28   ar
    29    28    29   ar
    30    29    30   ar
    31    30    31   ar
    32    31    32   ar
    33    32    33   ar
    34    33    34    1
    35    34    35   am
    36    35    36    2
    37    35    38    1
    38    38    40    1
    39    38    39    1
    40    39    40    1
    41    11    12    1
    42     8     9    1
    43     8    10    1
    44    34    37    1
#	Name:			ZINC25893075
#	Creating user name:	trannguyen
#	Creation time:		Wed Dec  7 14:36:19 2022


#	Modifying user name:	trannguyen
#	Modification time:	Wed Dec  7 14:36:19 2022

@<TRIPOS>MOLECULE
ZINC25893075
 31 34 0 0 0
SMALL
GASTEIGER

@<TRIPOS>ATOM
      1 C          22.0391  -23.3110   14.2257 C.2     1  UNL1        0.2704
      2 O          22.9349  -22.6540   13.7390 O.2     1  UNL1       -0.2708
      3 N          22.0944  -24.6571   14.1897 N.am    1  UNL1       -0.2720
      4 C          21.0190  -25.4761   14.7718 C.3     1  UNL1        0.1000
      5 C          20.3333  -26.2718   13.6555 C.3     1  UNL1        0.0648
      6 C          21.3902  -26.8876   12.7694 C.ar    1  UNL1        0.0329
      7 C          22.6751  -26.4755   12.7257 C.ar    1  UNL1        0.0106
      8 C          23.3572  -27.3033   11.7529 C.ar    1  UNL1        0.0145
      9 C          24.6733  -27.3346   11.2931 C.ar    1  UNL1        0.0076
     10 C          24.9750  -28.2967   10.3239 C.ar    1  UNL1        0.0757
     11 C          24.0033  -29.1818    9.8428 C.ar    1  UNL1        0.0079
     12 C          22.7085  -29.1588   10.2887 C.ar    1  UNL1        0.0172
     13 C          22.3798  -28.2073   11.2560 C.ar    1  UNL1        0.0561
     14 N          21.2091  -27.9269   11.8929 N.ar    1  UNL1       -0.3566
     15 C          23.2337  -25.3519   13.5641 C.3     1  UNL1        0.1214
     16 H          20.3585  -28.4002   11.7458 H       1  UNL1        0.1656
     17 C          26.3501  -28.3811    9.7964 C.2     1  UNL1        0.3413
     18 O          27.1928  -29.0183   10.3963 O.2     1  UNL1       -0.2449
     19 O          26.6715  -27.7514    8.6494 O.3     1  UNL1       -0.4413
     20 C          25.9829  -26.5048    8.3665 C.3     1  UNL1        0.2560
     21 C          20.8641  -22.6223   14.8706 C.3     1  UNL1        0.2896
     22 O          21.1896  -22.2899   16.2218 O.3     1  UNL1       -0.4656
     23 C          19.1022  -24.2545   19.1887 C.ar    1  UNL1       -0.0223
     24 C          20.4726  -24.4097   19.0904 C.ar    1  UNL1       -0.0012
     25 C          21.1738  -23.7530   18.0978 C.ar    1  UNL1        0.0366
     26 C          20.5020  -22.9371   17.1992 C.ar    1  UNL1        0.1393
     27 C          19.1277  -22.7784   17.3035 C.ar    1  UNL1        0.0366
     28 C          18.4302  -23.4422   18.2941 C.ar    1  UNL1       -0.0012
     29 C          16.8908  -24.4809   20.2876 C.3     1  UNL1        0.0047
     30 C          18.3397  -24.9721   20.2725 C.3     1  UNL1        0.0224
     31 C          18.3650  -26.4779   20.0024 C.3     1  UNL1        0.0047
@<TRIPOS>BOND
     1    29    30    1
     2    30    31    1
     3    30    23    1
     4    23    28   ar
     5    23    24   ar
     6    24    25   ar
     7    25    26   ar
     8    26    27   ar
     9    26    22    1
    10    27    28   ar
    11    22    21    1
    12    21     1    1
    13     1     2    2
    14     1     3   am
    15     3    15    1
    16     3     4    1
    17     4     5    1
    18     5     6    1
    19     6    14   ar
    20     6     7   ar
    21     7     8   ar
    22     7    15    1
    23     8    13   ar
    24     8     9   ar
    25     9    10   ar
    26    10    11   ar
    27    10    17    1
    28    11    12   ar
    29    12    13   ar
    30    13    14   ar
    31    17    18    2
    32    17    19    1
    33    19    20    1
    34    14    16    1
#	Name:			ZINC25929693
#	Creating user name:	trannguyen
#	Creation time:		Wed Dec  7 14:36:19 2022


#	Modifying user name:	trannguyen
#	Modification time:	Wed Dec  7 14:36:19 2022

@<TRIPOS>MOLECULE
ZINC25929693
 33 35 0 0 0
SMALL
GASTEIGER

@<TRIPOS>ATOM
      1 N          17.8211  -24.3931   15.1552 N.am    1  UNL1       -0.2790
      2 C          18.3655  -25.5443   15.5966 C.2     1  UNL1        0.2821
      3 O          18.8713  -26.3166   14.8101 O.2     1  UNL1       -0.2684
      4 H          17.4804  -23.7310   15.7992 H       1  UNL1        0.1550
      5 C          16.5410  -24.3710   13.0980 C.ar    1  UNL1        0.0668
      6 C          16.4748  -24.1186   11.7258 C.ar    1  UNL1        0.0058
      7 C          17.5816  -23.6366   11.0613 C.ar    1  UNL1        0.0002
      8 C          18.7647  -23.4092   11.7459 C.ar    1  UNL1        0.0013
      9 C          18.8467  -23.6585   13.1010 C.ar    1  UNL1        0.0148
     10 C          17.7403  -24.1401   13.7879 C.ar    1  UNL1        0.0548
     11 N          15.0353  -26.1891   13.7369 N.am    1  UNL1       -0.3025
     12 C          15.3586  -24.8831   13.8162 C.2     1  UNL1        0.2470
     13 O          14.6755  -24.1269   14.4796 O.2     1  UNL1       -0.2701
     14 H          15.5860  -26.8006   13.1964 H       1  UNL1        0.1497
     15 C          13.1309  -27.7153   13.5778 C.3     1  UNL1        0.0213
     16 C          13.8645  -26.6989   14.4550 C.3     1  UNL1        0.0720
     17 C          14.3159  -27.3754   15.7510 C.3     1  UNL1        0.0213
     18 C          18.3457  -25.8718   17.0674 C.3     1  UNL1        0.1923
     19 N          18.8223  -24.7127   17.8337 N.4     1  UNL1        0.2909
     20 C          18.4306  -24.8179   19.2456 C.3     1  UNL1        0.1681
     21 H          18.3807  -23.8784   17.4473 H       1  UNL1        0.2079
     22 C          20.2769  -24.5559   17.7012 C.3     1  UNL1        0.1368
     23 C          20.6002  -23.1193   17.3808 C.ar    1  UNL1        0.0726
     24 C          20.7833  -22.0897   18.3104 C.ar    1  UNL1        0.1235
     25 N          21.0492  -20.9885   17.6550 N.ar    1  UNL1       -0.1636
     26 N          21.0438  -21.2819   16.2852 N.ar    1  UNL1       -0.2283
     27 C          20.7704  -22.5986   16.1434 C.ar    1  UNL1        0.1034
     28 C          21.2849  -20.3727   15.2459 C.ar    1  UNL1        0.0828
     29 C          21.7105  -19.0830   15.5346 C.ar    1  UNL1        0.0191
     30 C          21.9514  -18.1907   14.5082 C.ar    1  UNL1        0.0015
     31 C          21.7596  -18.5777   13.1946 C.ar    1  UNL1        0.0001
     32 C          21.3313  -19.8600   12.9040 C.ar    1  UNL1        0.0015
     33 C          21.0933  -20.7581   13.9259 C.ar    1  UNL1        0.0191
@<TRIPOS>UNITY_ATOM_ATTR
19 1
charge 1
@<TRIPOS>BOND
     1    15    16    1
     2    16    17    1
     3    16    11    1
     4    11    12   am
     5    12    13    2
     6    12     5    1
     7     5    10   ar
     8     5     6   ar
     9     6     7   ar
    10     7     8   ar
    11     8     9   ar
    12     9    10   ar
    13    10     1    1
    14     1     2   am
    15     2     3    2
    16     2    18    1
    17    18    19    1
    18    19    20    1
    19    19    22    1
    20    22    23    1
    21    23    27   ar
    22    23    24   ar
    23    24    25   ar
    24    25    26   ar
    25    26    27   ar
    26    26    28    1
    27    28    33   ar
    28    28    29   ar
    29    29    30   ar
    30    30    31   ar
    31    31    32   ar
    32    32    33   ar
    33    11    14    1
    34     1     4    1
    35    19    21    1
#	Name:			ZINC26104383
#	Creating user name:	trannguyen
#	Creation time:		Wed Dec  7 14:36:20 2022


#	Modifying user name:	trannguyen
#	Modification time:	Wed Dec  7 14:36:20 2022

@<TRIPOS>MOLECULE
ZINC26104383
 27 28 0 0 0
SMALL
GASTEIGER

@<TRIPOS>ATOM
      1 C          21.9968  -23.0267   14.2378 C.2     1  UNL1        0.2739
      2 O          22.8792  -23.3638   14.9978 O.2     1  UNL1       -0.2706
      3 N          21.4105  -23.9399   13.4386 N.am    1  UNL1       -0.2366
      4 C          21.8050  -25.2278   13.4843 C.2     1  UNL1        0.3066
      5 O          22.6896  -25.5657   14.2461 O.2     1  UNL1       -0.2524
      6 N          21.2187  -26.1409   12.6850 N.am    1  UNL1       -0.2883
      7 H          20.6939  -23.6662   12.8215 H       1  UNL1        0.1592
      8 H          20.5022  -25.8671   12.0678 H       1  UNL1        0.1510
      9 C          21.5557  -21.5867   14.1868 C.3     1  UNL1        0.2931
     10 O          20.4494  -21.3957   15.0709 O.3     1  UNL1       -0.4353
     11 C          20.7352  -21.1769   16.3721 C.2     1  UNL1        0.3419
     12 O          21.5918  -20.3687   16.6794 O.2     1  UNL1       -0.2449
     13 C          19.8594  -23.2263   17.2598 C.2     1  UNL1        0.0131
     14 C          20.0403  -21.8856   17.3765 C.2     1  UNL1        0.0824
     15 C          16.2746  -25.7717   20.6308 C.3     1  UNL1        0.0382
     16 C          17.4363  -25.1621   19.8895 C.ar    1  UNL1        0.0076
     17 C          18.7553  -25.1900   20.2180 C.ar    1  UNL1        0.0027
     18 C          19.6642  -24.5725   19.3965 C.ar    1  UNL1        0.0067
     19 C          19.1631  -23.9366   18.2661 C.ar    1  UNL1        0.0294
     20 S          17.4139  -24.2566   18.4114 S.2     1  UNL1       -0.0913
     21 C          21.6475  -27.5409   12.7346 C.3     1  UNL1        0.0961
     22 C          22.0087  -28.0140   11.3251 C.3     1  UNL1        0.0542
     23 C          23.5078  -28.0451   11.1745 C.ar    1  UNL1        0.0090
     24 C          24.4286  -27.1537   11.6158 C.ar    1  UNL1        0.0027
     25 C          25.7667  -27.3913   11.3627 C.ar    1  UNL1        0.0072
     26 C          26.1175  -28.5033   10.6716 C.ar    1  UNL1        0.0351
     27 S          24.5312  -29.2614   10.3618 S.2     1  UNL1       -0.0907
@<TRIPOS>BOND
     1    15    16    1
     2    16    20   ar
     3    16    17   ar
     4    17    18   ar
     5    18    19   ar
     6    19    20   ar
     7    19    13    1
     8    13    14    2
     9    14    11    1
    10    11    12    2
    11    11    10    1
    12    10     9    1
    13     9     1    1
    14     1     2    2
    15     1     3   am
    16     3     4   am
    17     4     5    2
    18     4     6   am
    19     6    21    1
    20    21    22    1
    21    22    23    1
    22    23    27   ar
    23    23    24   ar
    24    24    25   ar
    25    25    26   ar
    26    26    27   ar
    27     3     7    1
    28     6     8    1
#	Name:			ZINC26108807
#	Creating user name:	trannguyen
#	Creation time:		Wed Dec  7 14:36:20 2022


#	Modifying user name:	trannguyen
#	Modification time:	Wed Dec  7 14:36:20 2022

@<TRIPOS>MOLECULE
ZINC26108807
 34 36 0 0 0
SMALL
GASTEIGER

@<TRIPOS>ATOM
      1 C          18.9370  -23.7868   12.2864 C.ar    1  UNL1        0.2096
      2 N          19.2187  -22.6194   11.7561 N.ar    1  UNL1       -0.1207
      3 N          20.2928  -22.1486   12.2819 N.ar    1  UNL1       -0.1274
      4 C          20.7615  -22.9838   13.1655 C.ar    1  UNL1        0.2042
      5 N          19.9149  -24.0573   13.2002 N.ar    1  UNL1       -0.2242
      6 N          20.0247  -25.1693   13.9860 N.pl3   1  UNL1       -0.2947
      7 H          19.3502  -25.8838   13.9248 H       1  UNL1        0.1627
      8 H          20.7782  -25.2561   14.6135 H       1  UNL1        0.1627
      9 S          17.5617  -24.8138   11.8887 S.3     1  UNL1       -0.0644
     10 C          16.2132  -23.8033   12.5496 C.3     1  UNL1        0.1502
     11 N          16.2735  -25.5417   14.3081 N.am    1  UNL1       -0.2832
     12 C          15.7023  -24.4202   13.8260 C.2     1  UNL1        0.2376
     13 O          14.7772  -23.9075   14.4195 O.2     1  UNL1       -0.2738
     14 H          17.0647  -25.9219   13.8624 H       1  UNL1        0.1549
     15 C          15.7843  -26.5615   17.8068 C.ar    1  UNL1       -0.0210
     16 C          14.6907  -27.3993   17.6847 C.ar    1  UNL1       -0.0042
     17 C          14.1218  -27.6220   16.4444 C.ar    1  UNL1        0.0010
     18 C          14.6408  -27.0033   15.3237 C.ar    1  UNL1        0.0147
     19 C          15.7419  -26.1657   15.4422 C.ar    1  UNL1        0.0500
     20 C          16.3112  -25.9442   16.6895 C.ar    1  UNL1        0.0104
     21 C          17.7811  -26.9804   19.2161 C.3     1  UNL1        0.0050
     22 C          16.4014  -26.3216   19.1606 C.3     1  UNL1        0.0264
     23 C          22.0059  -22.8007   13.9955 C.3     1  UNL1        0.2719
     24 O          21.6805  -22.9434   15.3797 O.3     1  UNL1       -0.4675
     25 C          21.1251  -21.8676   15.9971 C.ar    1  UNL1        0.1348
     26 C          21.4227  -20.5850   15.5594 C.ar    1  UNL1        0.0323
     27 C          20.8570  -19.4933   16.1885 C.ar    1  UNL1       -0.0189
     28 C          19.9943  -19.6777   17.2534 C.ar    1  UNL1       -0.0044
     29 C          19.6965  -20.9546   17.6916 C.ar    1  UNL1       -0.0016
     30 C          20.2554  -22.0502   17.0620 C.ar    1  UNL1        0.0115
     31 C          21.1799  -18.0998   15.7137 C.3     1  UNL1        0.0311
     32 C          19.9251  -23.4420   17.5359 C.3     1  UNL1        0.0253
     33 C          20.9656  -23.8912   18.5637 C.3     1  UNL1        0.0048
     34 C          18.5373  -23.4456   18.1801 C.3     1  UNL1        0.0048
@<TRIPOS>BOND
     1    21    22    1
     2    22    15    1
     3    15    20   ar
     4    15    16   ar
     5    16    17   ar
     6    17    18   ar
     7    18    19   ar
     8    19    20   ar
     9    19    11    1
    10    11    12   am
    11    12    13    2
    12    12    10    1
    13    10     9    1
    14     9     1    1
    15     1     5   ar
    16     1     2   ar
    17     2     3   ar
    18     3     4   ar
    19     4     5   ar
    20     4    23    1
    21     5     6    1
    22    23    24    1
    23    24    25    1
    24    25    30   ar
    25    25    26   ar
    26    26    27   ar
    27    27    28   ar
    28    27    31    1
    29    28    29   ar
    30    29    30   ar
    31    30    32    1
    32    32    33    1
    33    32    34    1
    34    11    14    1
    35     6     7    1
    36     6     8    1
#	Name:			ZINC26140892
#	Creating user name:	trannguyen
#	Creation time:		Wed Dec  7 14:36:19 2022


#	Modifying user name:	trannguyen
#	Modification time:	Wed Dec  7 14:36:19 2022

@<TRIPOS>MOLECULE
ZINC26140892
 37 38 0 0 0
SMALL
GASTEIGER

@<TRIPOS>ATOM
      1 C          18.2729  -24.3952   19.6105 C.2     1  UNL1        0.3288
      2 O          18.2906  -24.7631   20.7612 O.2     1  UNL1       -0.2491
      3 O          19.3115  -23.7085   19.1092 O.3     1  UNL1       -0.4422
      4 C          20.2879  -24.4587   18.3395 C.3     1  UNL1        0.2444
      5 C          21.5620  -24.6375   19.1676 C.3     1  UNL1        0.0575
      6 N          19.6929  -22.8962   16.5165 N.am    1  UNL1       -0.2815
      7 C          20.6127  -23.7089   17.0733 C.2     1  UNL1        0.2664
      8 O          21.7019  -23.8368   16.5552 O.2     1  UNL1       -0.2709
      9 H          18.7970  -22.8192   16.9174 H       1  UNL1        0.1549
     10 C          20.6148  -20.9165   15.4848 C.ar    1  UNL1       -0.0090
     11 C          20.9326  -20.1964   14.3498 C.ar    1  UNL1       -0.0031
     12 C          20.6409  -20.7097   13.0994 C.ar    1  UNL1       -0.0006
     13 C          20.0349  -21.9470   12.9807 C.ar    1  UNL1       -0.0031
     14 C          19.7193  -22.6742   14.1115 C.ar    1  UNL1       -0.0090
     15 C          20.0113  -22.1619   15.3688 C.ar    1  UNL1        0.0423
     16 C          19.8079  -19.4038   17.2763 C.3     1  UNL1        0.0051
     17 C          20.9277  -20.3539   16.8473 C.3     1  UNL1        0.0276
     18 C          19.0584  -24.0223   13.9813 C.3     1  UNL1        0.0276
     19 C          17.6072  -23.8378   13.5333 C.3     1  UNL1        0.0051
     20 C          17.0845  -24.7075   18.7379 C.3     1  UNL1        0.1728
     21 S          17.0760  -26.4729   18.3390 S.3     1  UNL1       -0.0823
     22 C          15.6118  -26.5590   17.3626 C.ar    1  UNL1        0.1181
     23 C          14.4867  -27.2535   17.8538 C.ar    1  UNL1        0.0922
     24 C          13.3312  -27.3117   17.0741 C.ar    1  UNL1        0.0216
     25 C          13.3412  -26.6826   15.8251 C.ar    1  UNL1        0.1074
     26 C          14.5075  -26.0129   15.4039 C.ar    1  UNL1        0.1322
     27 N          15.5829  -25.9756   16.1740 N.ar    1  UNL1       -0.2240
     28 N          14.5284  -25.3894   14.1742 N.pl3   1  UNL1       -0.3424
     29 H          13.7316  -25.4134   13.5965 H       1  UNL1        0.1437
     30 H          15.3401  -24.9201   13.8740 H       1  UNL1        0.1437
     31 C          12.1508  -26.7193   14.9631 C.2     1  UNL1        0.3440
     32 O          11.6118  -25.6829   14.6268 O.2     1  UNL1       -0.2448
     33 O          11.6569  -27.9021   14.5458 O.3     1  UNL1       -0.4454
     34 C          11.2898  -28.0059   13.1448 C.3     1  UNL1        0.2089
     35 C           9.7770  -28.2015   13.0270 C.3     1  UNL1        0.0513
     36 C          14.5283  -27.8863   19.1377 C.1     1  UNL1        0.1025
     37 N          14.5612  -28.3882   20.1563 N.1     1  UNL1       -0.1908
@<TRIPOS>BOND
     1    16    17    1
     2    17    10    1
     3    10    15   ar
     4    10    11   ar
     5    11    12   ar
     6    12    13   ar
     7    13    14   ar
     8    14    15   ar
     9    14    18    1
    10    15     6    1
    11     6     7   am
    12     7     8    2
    13     7     4    1
    14     4     5    1
    15     4     3    1
    16     3     1    1
    17     1     2    2
    18     1    20    1
    19    20    21    1
    20    21    22    1
    21    22    27   ar
    22    22    23   ar
    23    23    24   ar
    24    23    36    1
    25    24    25   ar
    26    25    26   ar
    27    25    31    1
    28    26    27   ar
    29    26    28    1
    30    31    32    2
    31    31    33    1
    32    33    34    1
    33    34    35    1
    34    36    37    3
    35    18    19    1
    36     6     9    1
    37    28    29    1
    38    28    30    1
#	Name:			ZINC26141933
#	Creating user name:	trannguyen
#	Creation time:		Wed Dec  7 14:36:20 2022


#	Modifying user name:	trannguyen
#	Modification time:	Wed Dec  7 14:36:20 2022

@<TRIPOS>MOLECULE
ZINC26141933
 38 40 0 0 0
SMALL
GASTEIGER

@<TRIPOS>ATOM
      1 C          21.3637  -20.6941   16.0832 C.2     1  UNL1        0.3288
      2 O          21.6829  -19.6298   16.5581 O.2     1  UNL1       -0.2491
      3 C          20.0162  -21.2881   16.4029 C.3     1  UNL1        0.1728
      4 S          20.2207  -22.6515   17.5756 S.3     1  UNL1       -0.0823
      5 C          17.0368  -25.4554   16.0543 C.ar    1  UNL1        0.1074
      6 C          17.2154  -25.3490   17.4374 C.ar    1  UNL1        0.0216
      7 C          18.2031  -24.4859   17.9128 C.ar    1  UNL1        0.0922
      8 C          18.9735  -23.7494   16.9890 C.ar    1  UNL1        0.1181
      9 N          18.7747  -23.8771   15.6859 N.ar    1  UNL1       -0.2240
     10 C          17.8511  -24.6887   15.1968 C.ar    1  UNL1        0.1322
     11 N          17.6835  -24.7860   13.8315 N.pl3   1  UNL1       -0.3424
     12 H          16.9980  -25.3879   13.4613 H       1  UNL1        0.1437
     13 H          18.2493  -24.2533   13.2269 H       1  UNL1        0.1437
     14 C          16.0130  -26.3547   15.5026 C.2     1  UNL1        0.3440
     15 O          14.9848  -25.8962   15.0439 O.2     1  UNL1       -0.2448
     16 O          16.2143  -27.6876   15.5054 O.3     1  UNL1       -0.4454
     17 C          14.7503  -29.0010   16.9412 C.3     1  UNL1        0.0513
     18 C          15.0335  -28.5326   15.5126 C.3     1  UNL1        0.2089
     19 C          18.4283  -24.3459   19.3200 C.1     1  UNL1        0.1025
     20 N          18.6069  -24.2349   20.4364 N.1     1  UNL1       -0.1908
     21 O          22.2096  -21.3472   15.2709 O.3     1  UNL1       -0.4422
     22 C          21.6220  -22.1206   14.1915 C.3     1  UNL1        0.2441
     23 C          22.0700  -21.5426   12.8475 C.3     1  UNL1        0.0575
     24 C          22.0736  -23.5544   14.2972 C.2     1  UNL1        0.2631
     25 O          23.1977  -23.8100   14.6743 O.2     1  UNL1       -0.2712
     26 N          21.2285  -24.5528   13.9727 N.am    1  UNL1       -0.2966
     27 H          20.3147  -24.3455   13.6704 H       1  UNL1        0.1499
     28 C          21.6694  -25.9465   14.0698 C.3     1  UNL1        0.1294
     29 C          21.1917  -26.7194   12.8389 C.3     1  UNL1        0.0295
     30 C          21.0888  -26.5717   15.3120 C.ar    1  UNL1        0.1405
     31 C          20.1203  -27.4977   15.3239 C.ar    1  UNL1        0.0377
     32 C          19.8753  -27.8155   16.7358 C.ar    1  UNL1        0.0373
     33 C          19.0122  -28.6824   17.4044 C.ar    1  UNL1        0.0031
     34 C          19.0308  -28.7370   18.7706 C.ar    1  UNL1        0.0002
     35 C          19.9023  -27.9358   19.4939 C.ar    1  UNL1        0.0031
     36 C          20.7629  -27.0726   18.8501 C.ar    1  UNL1        0.0375
     37 C          20.7602  -27.0015   17.4626 C.ar    1  UNL1        0.1449
     38 O          21.4634  -26.2772   16.5692 O.2     1  UNL1       -0.4561
@<TRIPOS>BOND
     1    17    18    1
     2    18    16    1
     3    16    14    1
     4    14    15    2
     5    14     5    1
     6     5    10   ar
     7     5     6   ar
     8     6     7   ar
     9     7     8   ar
    10     7    19    1
    11     8     9   ar
    12     8     4    1
    13     9    10   ar
    14    10    11    1
    15     4     3    1
    16     3     1    1
    17     1     2    2
    18     1    21    1
    19    21    22    1
    20    22    23    1
    21    22    24    1
    22    24    25    2
    23    24    26   am
    24    26    28    1
    25    28    29    1
    26    28    30    1
    27    30    38   ar
    28    30    31   ar
    29    31    32   ar
    30    32    37   ar
    31    32    33   ar
    32    33    34   ar
    33    34    35   ar
    34    35    36   ar
    35    36    37   ar
    36    37    38   ar
    37    19    20    3
    38    11    12    1
    39    11    13    1
    40    26    27    1
#	Name:			ZINC26269926
#	Creating user name:	trannguyen
#	Creation time:		Wed Dec  7 14:36:19 2022


#	Modifying user name:	trannguyen
#	Modification time:	Wed Dec  7 14:36:19 2022

@<TRIPOS>MOLECULE
ZINC26269926
 21 22 0 0 0
SMALL
GASTEIGER

@<TRIPOS>ATOM
      1 C          20.5370  -23.6456   17.9573 C.2     1  UNL1        0.2644
      2 O          21.7098  -23.6739   17.6347 O.2     1  UNL1       -0.2685
      3 N          19.7382  -22.6575   17.5077 N.am    1  UNL1       -0.2834
      4 H          18.7892  -22.6347   17.7686 H       1  UNL1        0.1549
      5 C          20.7591  -28.1257   19.7978 C.3     1  UNL1        0.1428
      6 N          19.9664  -26.9123   19.5835 N.am    1  UNL1       -0.1791
      7 C          18.7638  -26.7846   20.1779 C.2     1  UNL1        0.2448
      8 O          18.3365  -27.6731   20.8837 O.2     1  UNL1       -0.2731
      9 C          17.9514  -25.5331   19.9619 C.3     1  UNL1        0.0935
     10 C          18.9005  -24.3385   19.8110 C.3     1  UNL1        0.0618
     11 C          19.9927  -24.6865   18.8351 C.2     1  UNL1        0.1303
     12 N          20.4625  -25.8937   18.7638 N.2     1  UNL1       -0.1755
     13 C          20.2514  -21.6761   16.6800 C.ar    1  UNL1        0.0211
     14 N          20.2972  -21.7385   15.3231 N.ar    1  UNL1       -0.6210
     15 C          20.8791  -20.5691   14.8791 C.ar    1  UNL1       -0.0182
     16 C          21.1707  -19.8241   16.0173 C.ar    1  UNL1        0.1357
     17 N          20.7702  -20.5401   17.0827 N.ar    1  UNL1       -0.2455
     18 C          21.7850  -18.5309   16.0487 C.1     1  UNL1        0.1185
     19 N          22.2724  -17.5052   16.0736 N.1     1  UNL1       -0.1893
     20 C          21.1324  -20.1970   13.5197 C.1     1  UNL1        0.0785
     21 N          21.3334  -19.9018   12.4413 N.1     1  UNL1       -0.1926
@<TRIPOS>UNITY_ATOM_ATTR
14 1
charge -1
@<TRIPOS>BOND
     1     5     6    1
     2     6    12    1
     3     6     7   am
     4     7     8    2
     5     7     9    1
     6     9    10    1
     7    10    11    1
     8    11    12    2
     9    11     1    1
    10     1     2    2
    11     1     3   am
    12     3    13    1
    13    13    17   ar
    14    13    14   ar
    15    14    15   ar
    16    15    16   ar
    17    15    20    1
    18    16    17   ar
    19    16    18    1
    20    18    19    3
    21    20    21    3
    22     3     4    1
#	Name:			ZINC26302319
#	Creating user name:	trannguyen
#	Creation time:		Wed Dec  7 14:36:20 2022


#	Modifying user name:	trannguyen
#	Modification time:	Wed Dec  7 14:36:20 2022

@<TRIPOS>MOLECULE
ZINC26302319
 29 30 0 0 0
SMALL
GASTEIGER

@<TRIPOS>ATOM
      1 C          19.3300  -23.9382   18.7155 C.2     1  UNL1        0.2393
      2 O          18.2619  -23.3712   18.6300 O.2     1  UNL1       -0.2737
      3 N          20.4080  -23.4450   18.0742 N.am    1  UNL1       -0.2387
      4 C          20.2972  -22.3245   17.3335 C.2     1  UNL1        0.3102
      5 O          19.2252  -21.7589   17.2438 O.2     1  UNL1       -0.2521
      6 N          21.3752  -21.8313   16.6922 N.am    1  UNL1       -0.2676
      7 H          21.2764  -23.9032   18.1469 H       1  UNL1        0.1591
      8 H          22.2571  -22.2509   16.8173 H       1  UNL1        0.1564
      9 C          21.2408  -20.7211   15.8471 C.ar    1  UNL1        0.0572
     10 C          21.2035  -19.4419   16.3804 C.ar    1  UNL1        0.0152
     11 C          21.0752  -18.3480   15.5448 C.ar    1  UNL1        0.0013
     12 C          20.9741  -18.5252   14.1770 C.ar    1  UNL1        0.0006
     13 C          21.0052  -19.7968   13.6367 C.ar    1  UNL1        0.0074
     14 C          21.1384  -20.9004   14.4674 C.ar    1  UNL1        0.0387
     15 S          21.1777  -22.5231   13.7818 S.3     1  UNL1       -0.1115
     16 C          22.9458  -22.8644   13.5629 C.3     1  UNL1        0.0742
     17 C          19.4539  -25.1911   19.5438 C.3     1  UNL1        0.1304
     18 C          20.9333  -25.5266   19.7430 C.3     1  UNL1        0.0218
     19 S          18.6321  -26.5643   18.6897 S.3     1  UNL1       -0.0782
     20 C          19.0819  -25.7806   14.3470 C.ar    1  UNL1        0.1599
     21 N          20.1932  -26.0458   15.0066 N.ar    1  UNL1       -0.1339
     22 N          20.1436  -26.2950   16.3587 N.ar    1  UNL1       -0.1339
     23 C          18.9837  -26.2787   16.9869 C.ar    1  UNL1        0.1603
     24 S          17.8657  -25.8821   15.6513 S.2     1  UNL1       -0.0330
     25 S          18.8572  -25.4230   12.6364 S.3     1  UNL1       -0.0867
     26 C          17.0555  -25.3676   12.4326 C.3     1  UNL1        0.0642
     27 C          16.1716  -23.0652   12.8329 C.3     1  UNL1        0.0009
     28 C          16.6579  -24.0488   11.7666 C.3     1  UNL1        0.0112
     29 C          17.8690  -23.4578   11.0420 C.3     1  UNL1        0.0009
@<TRIPOS>BOND
     1    27    28    1
     2    28    29    1
     3    28    26    1
     4    26    25    1
     5    25    20    1
     6    20    24   ar
     7    20    21   ar
     8    21    22   ar
     9    22    23   ar
    10    23    24   ar
    11    23    19    1
    12    19    17    1
    13    17    18    1
    14    17     1    1
    15     1     2    2
    16     1     3   am
    17     3     4   am
    18     4     5    2
    19     4     6   am
    20     6     9    1
    21     9    14   ar
    22     9    10   ar
    23    10    11   ar
    24    11    12   ar
    25    12    13   ar
    26    13    14   ar
    27    14    15    1
    28    15    16    1
    29     3     7    1
    30     6     8    1
#	Name:			ZINC26326834
#	Creating user name:	trannguyen
#	Creation time:		Wed Dec  7 14:36:19 2022


#	Modifying user name:	trannguyen
#	Modification time:	Wed Dec  7 14:36:19 2022

@<TRIPOS>MOLECULE
ZINC26326834
 39 41 0 0 0
SMALL
GASTEIGER

@<TRIPOS>ATOM
      1 C          22.1902  -26.2340   12.9915 C.ar    1  UNL1        0.1533
      2 C          22.0283  -25.0964   13.7649 C.ar    1  UNL1        0.0559
      3 C          20.7541  -24.6570   14.0942 C.ar    1  UNL1        0.0881
      4 C          19.6375  -25.3537   13.6376 C.ar    1  UNL1        0.1533
      5 C          19.7994  -26.4876   12.8598 C.ar    1  UNL1        0.0559
      6 C          21.0741  -26.9303   12.5353 C.ar    1  UNL1        0.0880
      7 N          21.2379  -28.0790   11.7474 N.am    1  UNL1       -0.2767
      8 C          21.2838  -29.2941   12.3286 C.2     1  UNL1        0.2822
      9 O          21.2651  -29.3890   13.5377 O.2     1  UNL1       -0.2684
     10 H          21.3194  -27.9977   10.7696 H       1  UNL1        0.1551
     11 C          21.3585  -30.5347   11.4764 C.3     1  UNL1        0.1923
     12 N          22.7660  -30.8857   11.2450 N.4     1  UNL1        0.2908
     13 C          23.0691  -32.2225   11.7735 C.3     1  UNL1        0.1681
     14 H          23.3438  -30.2118   11.7474 H       1  UNL1        0.2079
     15 C          23.1036  -30.7947    9.8182 C.3     1  UNL1        0.1336
     16 C          24.1310  -29.7114    9.6131 C.ar    1  UNL1        0.0333
     17 C          25.1838  -29.5813   10.5017 C.ar    1  UNL1        0.0014
     18 C          26.1340  -28.5927   10.3183 C.ar    1  UNL1        0.0006
     19 C          26.0319  -27.7225    9.2526 C.ar    1  UNL1        0.0103
     20 C          24.9693  -27.8447    8.3552 C.ar    1  UNL1        0.0683
     21 C          24.0167  -28.8483    8.5434 C.ar    1  UNL1        0.0117
     22 C          24.8567  -26.9447    7.2470 C.1     1  UNL1        0.1004
     23 N          24.7672  -26.2308    6.3679 N.1     1  UNL1       -0.1908
     24 N          20.5903  -23.5088   14.8813 N.am    1  UNL1       -0.2779
     25 C          20.9588  -22.3045   14.4014 C.2     1  UNL1        0.2496
     26 O          21.5079  -22.2234   13.3197 O.2     1  UNL1       -0.2698
     27 H          20.2060  -23.5820   15.7847 H       1  UNL1        0.1553
     28 C          20.6955  -21.0824   15.1901 C.ar    1  UNL1        0.0537
     29 C          20.1624  -21.1797   16.4765 C.ar    1  UNL1        0.0045
     30 C          19.9195  -20.0352   17.2074 C.ar    1  UNL1        0.0001
     31 C          20.2028  -18.7930   16.6680 C.ar    1  UNL1        0.0000
     32 C          20.7314  -18.6896   15.3935 C.ar    1  UNL1        0.0001
     33 C          20.9794  -19.8261   14.6520 C.ar    1  UNL1        0.0045
     34 O          23.4397  -26.6683   12.6737 O.3     1  UNL1       -0.4742
     35 C          24.8820  -25.2381   11.3641 C.3     1  UNL1        0.0512
     36 C          24.5009  -25.7158   12.7668 C.3     1  UNL1        0.2056
     37 O          18.3880  -24.9202   13.9566 O.3     1  UNL1       -0.4742
     38 C          17.6257  -24.3127   12.9116 C.3     1  UNL1        0.2056
     39 C          16.2507  -24.9787   12.8301 C.3     1  UNL1        0.0512
@<TRIPOS>UNITY_ATOM_ATTR
12 1
charge 1
@<TRIPOS>BOND
     1    35    36    1
     2    36    34    1
     3    34     1    1
     4     1     6   ar
     5     1     2   ar
     6     2     3   ar
     7     3     4   ar
     8     3    24    1
     9     4     5   ar
    10     4    37    1
    11     5     6   ar
    12     6     7    1
    13     7     8   am
    14     8     9    2
    15     8    11    1
    16    11    12    1
    17    12    13    1
    18    12    15    1
    19    15    16    1
    20    16    21   ar
    21    16    17   ar
    22    17    18   ar
    23    18    19   ar
    24    19    20   ar
    25    20    21   ar
    26    20    22    1
    27    22    23    3
    28    37    38    1
    29    38    39    1
    30    24    25   am
    31    25    26    2
    32    25    28    1
    33    28    33   ar
    34    28    29   ar
    35    29    30   ar
    36    30    31   ar
    37    31    32   ar
    38    32    33   ar
    39     7    10    1
    40    12    14    1
    41    24    27    1
#	Name:			ZINC26379186
#	Creating user name:	trannguyen
#	Creation time:		Wed Dec  7 14:36:19 2022


#	Modifying user name:	trannguyen
#	Modification time:	Wed Dec  7 14:36:19 2022

@<TRIPOS>MOLECULE
ZINC26379186
 46 50 0 0 0
SMALL
GASTEIGER

@<TRIPOS>ATOM
      1 C          20.6690  -25.2297   14.0960 C.3     1  UNL1        0.1494
      2 C          20.5636  -26.4352   13.1617 C.3     1  UNL1        0.0337
      3 C          19.7844  -27.5547   13.8578 C.3     1  UNL1        0.0298
      4 C          20.2338  -27.6916   15.2875 C.ar    1  UNL1       -0.0084
      5 C          21.0577  -28.7348   15.6631 C.ar    1  UNL1       -0.0030
      6 C          21.4388  -28.8721   16.9854 C.ar    1  UNL1       -0.0002
      7 C          20.9993  -27.9673   17.9347 C.ar    1  UNL1        0.0013
      8 C          20.1820  -26.9170   17.5633 C.ar    1  UNL1        0.0146
      9 C          19.8034  -26.7757   16.2363 C.ar    1  UNL1        0.0499
     10 N          18.9861  -25.7080   15.8403 N.am    1  UNL1       -0.2576
     11 C          19.3534  -24.9714   14.7755 C.2     1  UNL1        0.2472
     12 O          18.6211  -24.0968   14.3633 O.2     1  UNL1       -0.2728
     13 C          21.9025  -23.1437   13.8428 C.2     1  UNL1        0.2284
     14 O          22.3516  -23.3079   14.9573 O.2     1  UNL1       -0.2749
     15 N          21.0517  -24.0481   13.3190 N.am    1  UNL1       -0.2981
     16 H          20.6873  -23.9148   12.4142 H       1  UNL1        0.1498
     17 C          22.3010  -21.9314   13.0411 C.3     1  UNL1        0.1342
     18 C          21.4612  -20.7305   13.4808 C.3     1  UNL1        0.0220
     19 C          21.6061  -19.6041   12.4556 C.3     1  UNL1        0.0556
     20 C          19.9916  -21.1445   13.5793 C.3     1  UNL1        0.0556
     21 N          21.9268  -20.2614   14.7927 N.4     1  UNL1        0.2485
     22 H          21.2459  -20.5289   15.5035 H       1  UNL1        0.2031
     23 H          22.8329  -20.6876   14.9874 H       1  UNL1        0.2031
     24 C          22.0846  -18.8009   14.8041 C.3     1  UNL1        0.1313
     25 C          20.5352  -19.2885   16.7025 C.3     1  UNL1        0.0381
     26 C          21.0958  -18.1889   15.7984 C.3     1  UNL1        0.1654
     27 O          21.7664  -17.2117   16.5966 O.3     1  UNL1       -0.3787
     28 H          22.4930  -17.6335   17.0814 H       1  UNL1        0.2106
     29 C          17.7548  -25.3998   16.5717 C.3     1  UNL1        0.0982
     30 C          16.5632  -26.0409   15.8574 C.3     1  UNL1        0.0202
     31 C          15.4328  -25.0176   15.7324 C.3     1  UNL1        0.0020
     32 C          14.2412  -25.6586   15.0181 C.3     1  UNL1        0.0044
     33 C          13.7516  -26.8635   15.8239 C.3     1  UNL1        0.0218
     34 C          14.8821  -27.8869   15.9488 C.3     1  UNL1        0.0044
     35 C          16.0736  -27.2459   16.6632 C.3     1  UNL1        0.0020
     36 C          12.5780  -27.4949   15.1202 C.ar    1  UNL1       -0.0285
     37 C          12.6008  -27.6614   13.7505 C.ar    1  UNL1       -0.0049
     38 C          11.5262  -28.2447   13.1038 C.ar    1  UNL1       -0.0004
     39 C          10.4185  -28.6560   13.8236 C.ar    1  UNL1       -0.0006
     40 C          10.3814  -28.4902   15.1927 C.ar    1  UNL1       -0.0069
     41 C          11.4641  -27.9070   15.8513 C.ar    1  UNL1       -0.0190
     42 C          11.4310  -27.7266   17.3201 C.ar    1  UNL1        0.0441
     43 N          11.6221  -28.6898   18.2551 N.ar    1  UNL1       -0.2895
     44 N          11.4959  -28.0335   19.4919 N.ar    1  UNL1       -0.2180
     45 N          11.2520  -26.7943   19.2342 N.ar    1  UNL1       -0.2180
     46 N          11.2162  -26.5997   17.9654 N.ar    1  UNL1       -0.2895
@<TRIPOS>UNITY_ATOM_ATTR
21 1
charge 1
43 1
charge -1
@<TRIPOS>BOND
     1    25    26    1
     2    26    24    1
     3    26    27    1
     4    24    21    1
     5    21    18    1
     6    18    19    1
     7    18    20    1
     8    18    17    1
     9    17    13    1
    10    13    14    2
    11    13    15   am
    12    15     1    1
    13     1    11    1
    14     1     2    1
    15     2     3    1
    16     3     4    1
    17     4     9   ar
    18     4     5   ar
    19     5     6   ar
    20     6     7   ar
    21     7     8   ar
    22     8     9   ar
    23     9    10    1
    24    10    11   am
    25    10    29    1
    26    11    12    2
    27    29    30    1
    28    30    35    1
    29    30    31    1
    30    31    32    1
    31    32    33    1
    32    33    34    1
    33    33    36    1
    34    34    35    1
    35    36    41   ar
    36    36    37   ar
    37    37    38   ar
    38    38    39   ar
    39    39    40   ar
    40    40    41   ar
    41    41    42    1
    42    42    46   ar
    43    42    43   ar
    44    43    44   ar
    45    44    45   ar
    46    45    46   ar
    47    21    22    1
    48    21    23    1
    49    15    16    1
    50    27    28    1
#	Name:			ZINC26386485
#	Creating user name:	trannguyen
#	Creation time:		Wed Dec  7 14:36:20 2022


#	Modifying user name:	trannguyen
#	Modification time:	Wed Dec  7 14:36:20 2022

@<TRIPOS>MOLECULE
ZINC26386485
 34 36 0 0 0
SMALL
GASTEIGER

@<TRIPOS>ATOM
      1 C          15.5335  -25.0894   14.3777 C.2     1  UNL1        0.2522
      2 O          14.6861  -24.2589   14.6444 O.2     1  UNL1       -0.2697
      3 N          15.2802  -26.3982   14.5759 N.am    1  UNL1       -0.2803
      4 H          15.9388  -27.0748   14.2972 H       1  UNL1        0.1552
      5 C          16.0699  -23.9349   11.5106 C.3     1  UNL1        0.0726
      6 C          17.0910  -24.1613   12.5956 C.ar    1  UNL1        0.1273
      7 C          16.8373  -24.6648   13.8379 C.ar    1  UNL1        0.0867
      8 C          18.1375  -24.7012   14.5233 C.ar    1  UNL1        0.0440
      9 C          19.0302  -24.2167   13.6466 C.ar    1  UNL1        0.1665
     10 O          18.3992  -23.9025   12.5045 O.2     1  UNL1       -0.4581
     11 C          20.5070  -24.0569   13.9015 C.3     1  UNL1        0.2689
     12 O          20.7230  -23.7653   15.2836 O.3     1  UNL1       -0.4673
     13 C          20.7908  -22.4532   15.6344 C.ar    1  UNL1        0.1394
     14 C          21.5171  -21.5640   14.8563 C.ar    1  UNL1        0.0400
     15 C          21.5903  -20.2322   15.2156 C.ar    1  UNL1        0.0400
     16 C          20.9383  -19.7844   16.3548 C.ar    1  UNL1        0.1389
     17 C          20.2120  -20.6737   17.1329 C.ar    1  UNL1        0.0400
     18 C          20.1383  -22.0053   16.7734 C.ar    1  UNL1        0.0400
     19 O          21.0107  -18.4734   16.7087 O.3     1  UNL1       -0.4714
     20 C          21.9413  -17.6588   15.9929 C.3     1  UNL1        0.2525
     21 C          14.0803  -26.7958   15.1782 C.ar    1  UNL1        0.0506
     22 C          14.0389  -27.0492   16.5430 C.ar    1  UNL1        0.0160
     23 C          12.8548  -27.4365   17.1376 C.ar    1  UNL1        0.0159
     24 C          11.7074  -27.5827   16.3691 C.ar    1  UNL1        0.0504
     25 C          11.7498  -27.3343   15.0034 C.ar    1  UNL1        0.0159
     26 C          12.9327  -26.9420   14.4097 C.ar    1  UNL1        0.0160
     27 N          10.5069  -27.9803   16.9717 N.am    1  UNL1       -0.2839
     28 C          10.2193  -29.2908   17.1005 C.2     1  UNL1        0.2261
     29 O          10.9588  -30.1239   16.6208 O.2     1  UNL1       -0.2748
     30 H           9.8733  -27.3026   17.3010 H       1  UNL1        0.1549
     31 C           8.9790  -29.7207   17.8406 C.3     1  UNL1        0.0854
     32 C           9.0963  -29.3152   19.3112 C.3     1  UNL1        0.0091
     33 C           7.8688  -29.8130   20.0770 C.3     1  UNL1        0.0005
     34 C          10.3589  -29.9361   19.9123 C.3     1  UNL1        0.0005
@<TRIPOS>BOND
     1     5     6    1
     2     6    10   ar
     3     6     7   ar
     4     7     8   ar
     5     7     1    1
     6     8     9   ar
     7     9    10   ar
     8     9    11    1
     9    11    12    1
    10    12    13    1
    11    13    18   ar
    12    13    14   ar
    13    14    15   ar
    14    15    16   ar
    15    16    17   ar
    16    16    19    1
    17    17    18   ar
    18    19    20    1
    19     1     2    2
    20     1     3   am
    21     3    21    1
    22    21    26   ar
    23    21    22   ar
    24    22    23   ar
    25    23    24   ar
    26    24    25   ar
    27    24    27    1
    28    25    26   ar
    29    27    28   am
    30    28    29    2
    31    28    31    1
    32    31    32    1
    33    32    33    1
    34    32    34    1
    35     3     4    1
    36    27    30    1
#	Name:			ZINC26390519
#	Creating user name:	trannguyen
#	Creation time:		Wed Dec  7 14:36:19 2022


#	Modifying user name:	trannguyen
#	Modification time:	Wed Dec  7 14:36:19 2022

@<TRIPOS>MOLECULE
ZINC26390519
 28 31 0 0 0
SMALL
GASTEIGER

@<TRIPOS>ATOM
      1 C          15.0312  -25.1353   14.5370 C.2     1  UNL1        0.2276
      2 O          14.6923  -24.0065   14.2505 O.2     1  UNL1       -0.2747
      3 N          16.2369  -25.5958   14.1489 N.am    1  UNL1       -0.2641
      4 H          16.5121  -26.5121   14.3815 H       1  UNL1        0.1567
      5 C          17.0916  -24.7775   13.4209 C.ar    1  UNL1        0.1656
      6 N          17.8520  -23.7841   13.8394 N.ar    1  UNL1       -0.2208
      7 C          18.6183  -23.0986   12.9935 C.ar    1  UNL1        0.1241
      8 C          18.6133  -23.4348   11.6656 C.ar    1  UNL1        0.0603
      9 S          17.4567  -24.7981   11.6715 S.2     1  UNL1       -0.0507
     10 C          19.4636  -21.9896   13.4810 C.ar    1  UNL1        0.1634
     11 C          19.8770  -21.8300   14.7617 C.ar    1  UNL1        0.0421
     12 C          20.6854  -20.6087   14.7782 C.ar    1  UNL1        0.0376
     13 C          21.3829  -19.9165   15.7693 C.ar    1  UNL1        0.0031
     14 C          22.0545  -18.7692   15.4496 C.ar    1  UNL1        0.0002
     15 C          22.0465  -18.2903   14.1476 C.ar    1  UNL1        0.0031
     16 C          21.3630  -18.9606   13.1547 C.ar    1  UNL1        0.0375
     17 C          20.6740  -20.1279   13.4567 C.ar    1  UNL1        0.1454
     18 O          19.9343  -20.9820   12.7199 O.2     1  UNL1       -0.4520
     19 C          14.1041  -26.0229   15.3267 C.3     1  UNL1        0.0874
     20 C          13.2552  -26.8574   14.3656 C.3     1  UNL1        0.0342
     21 C          11.7739  -26.5519   14.5968 C.3     1  UNL1        0.1097
     22 C          10.7023  -28.5957   12.8835 C.3     1  UNL1        0.0507
     23 C          10.6067  -28.7005   14.3838 C.ar    1  UNL1        0.0473
     24 C          10.0218  -29.7551   14.9580 C.ar    1  UNL1        0.0528
     25 S          10.1827  -29.3628   16.6915 S.2     1  UNL1       -0.0258
     26 C          11.0116  -27.8477   16.5260 C.ar    1  UNL1        0.2920
     27 O          11.3982  -27.0888   17.3971 O.2     1  UNL1       -0.2594
     28 N          11.1195  -27.7239   15.1836 N.ar    1  UNL1       -0.2935
@<TRIPOS>BOND
     1    22    23    1
     2    23    28   ar
     3    23    24   ar
     4    24    25   ar
     5    25    26   ar
     6    26    27    2
     7    26    28   ar
     8    28    21    1
     9    21    20    1
    10    20    19    1
    11    19     1    1
    12     1     2    2
    13     1     3   am
    14     3     5    1
    15     5     9   ar
    16     5     6   ar
    17     6     7   ar
    18     7     8   ar
    19     7    10    1
    20     8     9   ar
    21    10    18   ar
    22    10    11   ar
    23    11    12   ar
    24    12    17   ar
    25    12    13   ar
    26    13    14   ar
    27    14    15   ar
    28    15    16   ar
    29    16    17   ar
    30    17    18   ar
    31     3     4    1
#	Name:			ZINC26406548
#	Creating user name:	trannguyen
#	Creation time:		Wed Dec  7 14:36:20 2022


#	Modifying user name:	trannguyen
#	Modification time:	Wed Dec  7 14:36:20 2022

@<TRIPOS>MOLECULE
ZINC26406548
 48 51 0 0 0
SMALL
GASTEIGER

@<TRIPOS>ATOM
      1 N          20.0847  -25.1564   15.1574 N.am    1  UNK1       -0.2966
      2 C          21.2053  -25.8920   15.0172 C.2     1  UNK1        0.2411
      3 O          21.4960  -26.7200   15.8544 O.2     1  UNK1       -0.2733
      4 H          19.8488  -24.4843   14.4778 H       1  UNK1        0.1499
      5 C          19.2177  -25.3570   16.3211 C.3     1  UNK1        0.1568
      6 N          17.4779  -24.7993   14.6536 N.am    2  LEU2       -0.2980
      7 C          17.7862  -25.0903   15.9329 C.2     1  UNK1        0.2411
      8 O          16.9115  -25.1376   16.7718 O.2     1  UNK1       -0.2733
      9 H          18.1879  -24.7609   13.9727 H       2  LEU2        0.1498
     10 CA         16.0863  -24.5401   14.2762 C.3     2  LEU2        0.1368
     11 C          16.0303  -23.3557   13.3461 C.2     2  LEU2        0.2266
     12 O          14.9746  -22.8148   13.1202 O.2     2  LEU2       -0.2865
     13 CB         15.5115  -25.7701   13.5708 C.3     2  LEU2        0.0276
     14 CD1        13.7020  -25.4888   15.2705 C.3     2  LEU2        0.0001
     15 CG         14.5640  -26.5061   14.5202 C.3     2  LEU2        0.0021
     16 CD2        13.6618  -27.4436   13.7150 C.3     2  LEU2        0.0001
     17 C          19.6312  -24.3954   17.4370 C.3     1  UNK1        0.1020
     18 C          19.7304  -25.1490   18.7383 C.ar    1  UNK1        0.1651
     19 C          20.8611  -25.4715   19.3950 C.ar    1  UNK1        0.2203
     20 N          20.5189  -26.1359   20.5087 N.ar    1  UNK1       -0.2270
     21 C          19.2196  -26.2449   20.5628 C.ar    1  UNK1        0.3715
     22 N          18.6890  -25.6423   19.4770 N.ar    1  UNK1       -0.2329
     23 H          21.1486  -26.4863   21.1795 H       1  UNK1        0.3117
     24 H          17.7318  -25.5712   19.2577 H       1  UNK1        0.3113
     25 C          22.0973  -25.6856   13.8201 C.3     1  UNK1        0.1554
     26 N          21.8871  -24.3398   13.2809 N.am    1  UNK1       -0.2637
     27 C          22.6620  -23.3185   13.6971 C.2     0  UNK0        0.4023
     28 O          23.5348  -23.5141   14.5197 O.2     0  UNK0       -0.2264
     29 H          21.1800  -24.1813   12.6145 H       1  UNK1        0.1532
     30 O          22.4690  -22.0816   13.2015 O.3     0  UNK0       -0.4297
     31 C          21.1054  -21.5831   13.1859 C.3     0  UNK0        0.2367
     32 C          20.8667  -20.7348   14.4083 C.ar    0  UNK0        0.0213
     33 C          20.3658  -21.3094   15.5615 C.ar    0  UNK0       -0.0007
     34 C          20.1514  -20.5321   16.6843 C.ar    0  UNK0       -0.0002
     35 C          20.4285  -19.1782   16.6508 C.ar    0  UNK0       -0.0000
     36 C          20.9241  -18.6025   15.4960 C.ar    0  UNK0       -0.0002
     37 C          21.1434  -19.3808   14.3748 C.ar    0  UNK0       -0.0007
     38 C          21.7598  -26.7232   12.7476 C.3     1  UNK1        0.0554
     39 C          23.0287  -27.1853   12.0788 C.ar    1  UNK1       -0.0200
     40 C          24.1335  -26.3898   12.0836 C.ar    1  UNK1       -0.0042
     41 C          25.3155  -26.8000   11.4706 C.ar    1  UNK1       -0.0003
     42 C          25.4002  -28.0083   10.8494 C.ar    1  UNK1       -0.0000
     43 C          24.2807  -28.8569   10.8242 C.ar    1  UNK1       -0.0003
     44 C          23.0796  -28.4418   11.4521 C.ar    1  UNK1       -0.0039
     45 C          21.9583  -29.2885   11.4224 C.ar    1  UNK1       -0.0003
     46 C          22.0431  -30.4965   10.8013 C.ar    1  UNK1       -0.0000
     47 C          23.2254  -30.9066   10.1876 C.ar    1  UNK1       -0.0000
     48 C          24.3297  -30.1113   10.1922 C.ar    1  UNK1       -0.0000
@<TRIPOS>UNITY_ATOM_ATTR
20 1
charge 1
@<TRIPOS>BOND
     1    14    15    1
     2    15    16    1
     3    15    13    1
     4    13    10    1
     5    10    11    1
     6    10     6    1
     7    11    12    2
     8     6     7   am
     9     7     8    2
    10     7     5    1
    11     5    17    1
    12     5     1    1
    13    17    18    1
    14    18    22   ar
    15    18    19   ar
    16    19    20   ar
    17    20    21   ar
    18    21    22   ar
    19     1     2   am
    20     2     3    2
    21     2    25    1
    22    25    38    1
    23    25    26    1
    24    38    39    1
    25    39    44   ar
    26    39    40   ar
    27    40    41   ar
    28    41    42   ar
    29    42    43   ar
    30    43    48   ar
    31    43    44   ar
    32    44    45   ar
    33    45    46   ar
    34    46    47   ar
    35    47    48   ar
    36    26    27   am
    37    27    28    2
    38    27    30    1
    39    30    31    1
    40    31    32    1
    41    32    37   ar
    42    32    33   ar
    43    33    34   ar
    44    34    35   ar
    45    35    36   ar
    46    36    37   ar
    47     6     9    1
    48    20    23    1
    49    22    24    1
    50     1     4    1
    51    26    29    1
#	Name:			ZINC26694413
#	Creating user name:	trannguyen
#	Creation time:		Wed Dec  7 14:36:20 2022


#	Modifying user name:	trannguyen
#	Modification time:	Wed Dec  7 14:36:20 2022

@<TRIPOS>MOLECULE
ZINC26694413
 35 37 0 0 0
SMALL
GASTEIGER

@<TRIPOS>ATOM
      1 N          16.7024  -25.3894   13.2185 N.am    1  UNL1       -0.2810
      2 C          16.0899  -25.4189   14.4187 C.2     1  UNL1        0.2664
      3 O          16.5352  -24.7717   15.3429 O.2     1  UNL1       -0.2709
      4 H          16.3767  -25.9603   12.4854 H       1  UNL1        0.1550
      5 C          19.9770  -22.8806   12.6108 C.ar    1  UNL1        0.1454
      6 C          20.1757  -24.2022   12.9833 C.ar    1  UNL1        0.0388
      7 C          19.0916  -25.0319   13.1901 C.ar    1  UNL1        0.0178
      8 C          17.8027  -24.5466   13.0140 C.ar    1  UNL1        0.0506
      9 C          17.6046  -23.2253   12.6356 C.ar    1  UNL1        0.0178
     10 C          18.6893  -22.3950   12.4347 C.ar    1  UNL1        0.0388
     11 O          21.0447  -22.0625   12.4128 O.3     1  UNL1       -0.4535
     12 C          21.8720  -17.8603   16.0707 C.3     1  UNL1        0.0310
     13 C          21.6505  -18.9846   15.0919 C.ar    1  UNL1       -0.0217
     14 C          21.5800  -20.2894   15.5442 C.ar    1  UNL1       -0.0011
     15 C          21.3770  -21.3219   14.6492 C.ar    1  UNL1        0.0372
     16 C          21.2440  -21.0487   13.2953 C.ar    1  UNL1        0.1453
     17 C          21.3150  -19.7384   12.8441 C.ar    1  UNL1        0.0372
     18 C          21.5180  -18.7096   13.7433 C.ar    1  UNL1       -0.0011
     19 C          14.8517  -26.2557   14.6124 C.3     1  UNL1        0.2447
     20 C          15.2534  -27.6715   15.0305 C.3     1  UNL1        0.0575
     21 O          14.0233  -25.6623   15.6467 O.3     1  UNL1       -0.4397
     22 C          12.6889  -25.7271   15.4738 C.2     1  UNL1        0.3415
     23 O          12.0943  -24.7903   14.9797 O.2     1  UNL1       -0.2449
     24 C          11.9488  -26.9376   15.8851 C.ar    1  UNL1        0.0756
     25 C          11.9852  -27.3642   17.2142 C.ar    1  UNL1        0.0062
     26 C          11.2876  -28.4925   17.5924 C.ar    1  UNL1       -0.0024
     27 C          10.5617  -29.2073   16.6560 C.ar    1  UNL1       -0.0026
     28 C          10.5259  -28.7934   15.3362 C.ar    1  UNL1       -0.0024
     29 C          11.2144  -27.6637   14.9454 C.ar    1  UNL1        0.0062
     30 C           9.8064  -30.4419   17.0756 C.3     1  UNL1        0.1163
     31 N           9.4291  -30.3277   18.4866 N.am    1  UNL1       -0.3004
     32 C           8.2577  -29.7546   18.8266 C.2     1  UNL1        0.2232
     33 O           7.5158  -29.3334   17.9646 O.2     1  UNL1       -0.2751
     34 C           7.8696  -29.6370   20.2780 C.3     1  UNL1        0.0946
     35 H          10.0313  -30.6696   19.1863 H       1  UNL1        0.1497
@<TRIPOS>BOND
     1    12    13    1
     2    13    18   ar
     3    13    14   ar
     4    14    15   ar
     5    15    16   ar
     6    16    17   ar
     7    16    11    1
     8    17    18   ar
     9    11     5    1
    10     5    10   ar
    11     5     6   ar
    12     6     7   ar
    13     7     8   ar
    14     8     9   ar
    15     8     1    1
    16     9    10   ar
    17     1     2   am
    18     2     3    2
    19     2    19    1
    20    19    20    1
    21    19    21    1
    22    21    22    1
    23    22    23    2
    24    22    24    1
    25    24    29   ar
    26    24    25   ar
    27    25    26   ar
    28    26    27   ar
    29    27    28   ar
    30    27    30    1
    31    28    29   ar
    32    30    31    1
    33    31    32   am
    34    32    33    2
    35    32    34    1
    36     1     4    1
    37    31    35    1
#	Name:			ZINC26731991
#	Creating user name:	trannguyen
#	Creation time:		Wed Dec  7 14:36:19 2022


#	Modifying user name:	trannguyen
#	Modification time:	Wed Dec  7 14:36:19 2022

@<TRIPOS>MOLECULE
ZINC26731991
 29 30 0 0 0
SMALL
GASTEIGER

@<TRIPOS>ATOM
      1 C          20.1547  -22.0127   13.1075 C.2     1  UNL1        0.3420
      2 O          21.0066  -22.8033   12.7522 O.2     1  UNL1       -0.2449
      3 C          20.4770  -20.9850   14.1116 C.ar    1  UNL1        0.0813
      4 C          20.8648  -19.7039   13.7079 C.ar    1  UNL1        0.0069
      5 C          21.1706  -18.7493   14.6522 C.ar    1  UNL1        0.0002
      6 C          21.0910  -19.0490   16.0037 C.ar    1  UNL1        0.0005
      7 C          20.7052  -20.3061   16.4193 C.ar    1  UNL1        0.0064
      8 C          20.3921  -21.2840   15.4817 C.ar    1  UNL1        0.0318
      9 S          19.8987  -22.8912   16.0090 S.3     1  UNL1       -0.1086
     10 C          19.4817  -22.5415   17.7351 C.3     1  UNL1        0.0889
     11 C          19.8310  -23.7339   18.5879 C.ar    1  UNL1       -0.0040
     12 C          21.1112  -24.2549   18.5745 C.ar    1  UNL1        0.0041
     13 C          21.3909  -25.3315   19.3492 C.ar    1  UNL1        0.0352
     14 S          19.8170  -25.6413   20.1329 S.2     1  UNL1       -0.0862
     15 C          18.8929  -24.3150   19.3752 C.ar    1  UNL1        0.0320
     16 O          18.9151  -22.0765   12.5824 O.3     1  UNL1       -0.4397
     17 C          18.1698  -23.5994   10.8345 C.3     1  UNL1        0.0575
     18 C          18.3701  -23.3999   12.3381 C.3     1  UNL1        0.2448
     19 C          17.0454  -23.5358   13.0437 C.2     1  UNL1        0.2696
     20 O          16.3319  -22.5659   13.1857 O.2     1  UNL1       -0.2708
     21 N          16.6538  -24.7356   13.5169 N.am    1  UNL1       -0.2367
     22 C          15.4691  -24.8570   14.1479 C.2     1  UNL1        0.3068
     23 O          14.7539  -23.8848   14.2902 O.2     1  UNL1       -0.2524
     24 N          15.0775  -26.0568   14.6210 N.am    1  UNL1       -0.2846
     25 H          17.2331  -25.5231   13.4015 H       1  UNL1        0.1592
     26 H          15.6569  -26.8443   14.5057 H       1  UNL1        0.1513
     27 C          13.7898  -26.1889   15.3069 C.3     1  UNL1        0.1174
     28 C          12.8007  -26.8645   14.3926 C.2     1  UNL1       -0.0049
     29 C          13.2129  -27.7563   13.5260 C.2     1  UNL1       -0.0032
@<TRIPOS>BOND
     1    17    18    1
     2    18    19    1
     3    18    16    1
     4    19    20    2
     5    19    21   am
     6    21    22   am
     7    22    23    2
     8    22    24   am
     9    24    27    1
    10    27    28    1
    11    28    29    2
    12    16     1    1
    13     1     2    2
    14     1     3    1
    15     3     8   ar
    16     3     4   ar
    17     4     5   ar
    18     5     6   ar
    19     6     7   ar
    20     7     8   ar
    21     8     9    1
    22     9    10    1
    23    10    11    1
    24    11    15   ar
    25    11    12   ar
    26    12    13   ar
    27    13    14   ar
    28    14    15   ar
    29    21    25    1
    30    24    26    1
#	Name:			ZINC26740837
#	Creating user name:	trannguyen
#	Creation time:		Wed Dec  7 14:36:19 2022


#	Modifying user name:	trannguyen
#	Modification time:	Wed Dec  7 14:36:19 2022

@<TRIPOS>MOLECULE
ZINC26740837
 29 30 0 0 0
SMALL
GASTEIGER

@<TRIPOS>ATOM
      1 N          14.2198  -27.1802   14.7662 N.am    1  UNL1       -0.2683
      2 C          14.4677  -25.8920   14.4566 C.2     1  UNL1        0.3103
      3 O          13.7054  -25.0206   14.8265 O.2     1  UNL1       -0.2521
      4 N          15.5609  -25.5703   13.7369 N.am    1  UNL1       -0.2365
      5 C          15.8087  -24.2821   13.4274 C.2     1  UNL1        0.2696
      6 O          15.0510  -23.4124   13.8005 O.2     1  UNL1       -0.2708
      7 H          14.7900  -27.8934   14.3982 H       1  UNL1        0.1564
      8 H          16.1783  -26.2761   13.4374 H       1  UNL1        0.1592
      9 C           9.5994  -28.7629   15.3303 C.3     1  UNL1        0.0307
     10 C          10.9009  -28.2732   15.9109 C.ar    1  UNL1       -0.0246
     11 C          11.0405  -28.1428   17.2808 C.ar    1  UNL1       -0.0045
     12 C          12.2328  -27.6933   17.8174 C.ar    1  UNL1        0.0009
     13 C          13.2889  -27.3735   16.9864 C.ar    1  UNL1        0.0144
     14 C          13.1520  -27.5037   15.6108 C.ar    1  UNL1        0.0473
     15 C          11.9513  -27.9505   15.0745 C.ar    1  UNL1       -0.0123
     16 C          11.7963  -28.0874   13.5818 C.3     1  UNL1        0.0320
     17 C          17.0310  -23.9224   12.6227 C.3     1  UNL1        0.2445
     18 C          16.6605  -23.8428   11.1404 C.3     1  UNL1        0.0575
     19 O          17.5397  -22.6360   13.0641 O.3     1  UNL1       -0.4422
     20 C          18.8717  -22.4706   13.0517 C.2     1  UNL1        0.3285
     21 O          19.3456  -21.4088   12.7230 O.2     1  UNL1       -0.2491
     22 C          19.7761  -23.6091   13.4477 C.3     1  UNL1        0.1673
     23 S          20.2467  -23.4295   15.1903 S.3     1  UNL1       -0.1238
     24 C          21.6641  -22.2983   15.1478 C.3     1  UNL1        0.0848
     25 C          21.2421  -20.9448   15.6588 C.ar    1  UNL1       -0.0043
     26 C          20.2645  -20.8353   16.6299 C.ar    1  UNL1        0.0041
     27 C          19.9121  -19.6032   17.0717 C.ar    1  UNL1        0.0352
     28 S          20.9668  -18.5449   16.0946 S.2     1  UNL1       -0.0862
     29 C          21.8115  -19.8164   15.1690 C.ar    1  UNL1        0.0320
@<TRIPOS>BOND
     1     9    10    1
     2    10    15   ar
     3    10    11   ar
     4    11    12   ar
     5    12    13   ar
     6    13    14   ar
     7    14    15   ar
     8    14     1    1
     9    15    16    1
    10     1     2   am
    11     2     3    2
    12     2     4   am
    13     4     5   am
    14     5     6    2
    15     5    17    1
    16    17    18    1
    17    17    19    1
    18    19    20    1
    19    20    21    2
    20    20    22    1
    21    22    23    1
    22    23    24    1
    23    24    25    1
    24    25    29   ar
    25    25    26   ar
    26    26    27   ar
    27    27    28   ar
    28    28    29   ar
    29     1     7    1
    30     4     8    1
#	Name:			ZINC26754968
#	Creating user name:	trannguyen
#	Creation time:		Wed Dec  7 14:36:20 2022


#	Modifying user name:	trannguyen
#	Modification time:	Wed Dec  7 14:36:20 2022

@<TRIPOS>MOLECULE
ZINC26754968
 35 37 0 0 0
SMALL
GASTEIGER

@<TRIPOS>ATOM
      1 C          15.5533  -24.5457   14.2793 C.2     1  UNL1        0.2463
      2 O          14.6244  -23.8009   14.5240 O.2     1  UNL1       -0.2701
      3 N          15.6681  -25.7177   14.9347 N.am    1  UNL1       -0.2924
      4 H          16.4205  -26.3209   14.7365 H       1  UNL1        0.1502
      5 C          18.2670  -22.6665   12.4775 C.ar    1  UNL1        0.0533
      6 C          18.4303  -23.4544   11.3443 C.ar    1  UNL1        0.0148
      7 C          17.6629  -24.5906   11.1703 C.ar    1  UNL1        0.0014
      8 C          16.7290  -24.9505   12.1208 C.ar    1  UNL1        0.0046
      9 C          16.5573  -24.1659   13.2623 C.ar    1  UNL1        0.0546
     10 C          17.3319  -23.0192   13.4377 C.ar    1  UNL1        0.0193
     11 C          20.3185  -21.6235   13.0823 C.2     1  UNL1        0.4052
     12 O          20.8151  -22.7206   13.2442 O.2     1  UNL1       -0.2261
     13 N          19.0468  -21.5167   12.6489 N.am    1  UNL1       -0.2499
     14 H          18.6663  -20.6302   12.4528 H       1  UNL1        0.1582
     15 O          21.0386  -20.5144   13.3361 O.3     1  UNL1       -0.4417
     16 C          20.1862  -20.9464   15.5760 C.3     1  UNL1        0.0437
     17 C          21.1001  -20.0701   14.7171 C.3     1  UNL1        0.1378
     18 C          22.5389  -20.1823   15.2253 C.3     1  UNL1        0.0437
     19 C          20.6402  -18.6135   14.8052 C.3     1  UNL1        0.0437
     20 C          14.6735  -26.0939   15.9423 C.3     1  UNL1        0.1775
     21 C          13.5406  -26.8334   15.2782 C.ar    1  UNL1        0.2834
     22 N          12.4779  -26.2444   14.6665 N.ar    1  UNL1       -0.2383
     23 C          11.6693  -27.2546   14.1855 C.ar    1  UNL1        0.1820
     24 C          10.4702  -27.2831   13.4862 C.ar    1  UNL1        0.0458
     25 C           9.9039  -28.4944   13.1511 C.ar    1  UNL1        0.0039
     26 C          10.5235  -29.6834   13.5089 C.ar    1  UNL1        0.0039
     27 C          11.7034  -29.6748   14.1971 C.ar    1  UNL1        0.0458
     28 C          12.2965  -28.4588   14.5471 C.ar    1  UNL1        0.1820
     29 N          13.4337  -28.1284   15.2114 N.ar    1  UNL1       -0.2383
     30 H          12.3156  -25.2770   14.5824 H       1  UNL1        0.3111
     31 H          14.0790  -28.7709   15.5855 H       1  UNL1        0.3111
     32 C          15.3261  -26.9964   16.9913 C.3     1  UNL1        0.0438
     33 C          16.6667  -26.3952   17.4183 C.3     1  UNL1        0.0599
     34 S          16.5240  -25.7333   19.1012 S.3     1  UNL1       -0.1393
     35 C          16.9908  -23.9890   18.9278 C.3     1  UNL1        0.0692
@<TRIPOS>UNITY_ATOM_ATTR
29 1
charge 1
@<TRIPOS>BOND
     1    16    17    1
     2    17    18    1
     3    17    19    1
     4    17    15    1
     5    15    11    1
     6    11    12    2
     7    11    13   am
     8    13     5    1
     9     5    10   ar
    10     5     6   ar
    11     6     7   ar
    12     7     8   ar
    13     8     9   ar
    14     9    10   ar
    15     9     1    1
    16     1     2    2
    17     1     3   am
    18     3    20    1
    19    20    32    1
    20    20    21    1
    21    32    33    1
    22    33    34    1
    23    34    35    1
    24    21    29   ar
    25    21    22   ar
    26    22    23   ar
    27    23    28   ar
    28    23    24   ar
    29    24    25   ar
    30    25    26   ar
    31    26    27   ar
    32    27    28   ar
    33    28    29   ar
    34    13    14    1
    35     3     4    1
    36    22    30    1
    37    29    31    1
#	Name:			ZINC26773030
#	Creating user name:	trannguyen
#	Creation time:		Wed Dec  7 14:36:20 2022


#	Modifying user name:	trannguyen
#	Modification time:	Wed Dec  7 14:36:20 2022

@<TRIPOS>MOLECULE
ZINC26773030
 35 36 0 0 0
SMALL
GASTEIGER

@<TRIPOS>ATOM
      1 N          13.7848  -26.2312   14.9150 N.am    1  UNL1       -0.2310
      2 C          12.4761  -26.0665   15.1917 C.2     1  UNL1        0.2631
      3 O          11.9435  -24.9916   14.9935 O.2     1  UNL1       -0.2686
      4 H          14.2151  -27.1027   15.0716 H       1  UNL1        0.1731
      5 C          11.6895  -27.1909   15.7353 C.ar    1  UNL1        0.0804
      6 C          11.6579  -27.4218   17.1134 C.ar    1  UNL1        0.0463
      7 C          10.9200  -28.4748   17.6172 C.ar    1  UNL1        0.1728
      8 C          10.2087  -29.3049   16.7514 C.ar    1  UNL1        0.1796
      9 C          10.2408  -29.0757   15.3829 C.ar    1  UNL1        0.0644
     10 C          10.9706  -28.0229   14.8742 C.ar    1  UNL1        0.1505
     11 N          10.9974  -27.7779   13.4147 N.pl3   1  UNL1        0.0579
     12 O          12.0053  -28.0197   12.7750 O.2     1  UNL1       -0.1261
     13 O          10.0115  -27.3346   12.8533 O.2     1  UNL1       -0.1261
     14 O          10.8874  -28.7026   18.9576 O.3     1  UNL1       -0.4684
     15 C          12.0605  -29.2654   19.5487 C.3     1  UNL1        0.2526
     16 O           9.4836  -30.3400   17.2483 O.3     1  UNL1       -0.4205
     17 C          10.0629  -31.6428   17.1527 C.3     1  UNL1        0.5087
     18 F          11.4539  -31.5439   17.2648 F       1  UNL1       -0.1550
     19 F           9.5683  -32.4498   18.1831 F       1  UNL1       -0.1550
     20 N          14.5329  -25.1622   14.4045 N.am    1  UNL1       -0.2453
     21 H          14.0756  -24.3923   13.9954 H       1  UNL1        0.1718
     22 C          15.8786  -25.1877   14.4735 C.2     1  UNL1        0.1511
     23 S          16.6571  -25.2203   15.9980 S.2     1  UNL1       -0.0171
     24 N          16.6115  -25.1875   13.3425 N.am    1  UNL1       -0.2948
     25 H          16.3562  -25.7692   12.5904 H       1  UNL1        0.1539
     26 C          19.9572  -22.7253   13.0294 C.ar    1  UNL1       -0.0221
     27 C          18.6891  -22.1778   12.9637 C.ar    1  UNL1       -0.0030
     28 C          17.5778  -22.9913   13.0670 C.ar    1  UNL1        0.0143
     29 C          17.7350  -24.3608   13.2371 C.ar    1  UNL1        0.0496
     30 C          19.0100  -24.9068   13.3079 C.ar    1  UNL1        0.0143
     31 C          20.1172  -24.0884   13.1986 C.ar    1  UNL1       -0.0030
     32 C          21.1675  -21.8347   12.9158 C.3     1  UNL1        0.0264
     33 C          20.7919  -20.4091   13.3249 C.3     1  UNL1        0.0047
     34 C          20.6751  -20.3564   15.8201 C.3     1  UNL1        0.0000
     35 C          21.5430  -20.0306   14.6030 C.3     1  UNL1        0.0003
@<TRIPOS>BOND
     1    34    35    1
     2    35    33    1
     3    33    32    1
     4    32    26    1
     5    26    31   ar
     6    26    27   ar
     7    27    28   ar
     8    28    29   ar
     9    29    30   ar
    10    29    24    1
    11    30    31   ar
    12    24    22    1
    13    22    23    2
    14    22    20    1
    15    20     1    1
    16     1     2   am
    17     2     3    2
    18     2     5    1
    19     5    10   ar
    20     5     6   ar
    21     6     7   ar
    22     7     8   ar
    23     7    14    1
    24     8     9   ar
    25     8    16    1
    26     9    10   ar
    27    10    11    1
    28    11    12    2
    29    11    13    2
    30    16    17    1
    31    17    18    1
    32    17    19    1
    33    14    15    1
    34    24    25    1
    35    20    21    1
    36     1     4    1
#	Name:			ZINC26794156
#	Creating user name:	trannguyen
#	Creation time:		Wed Dec  7 14:36:19 2022


#	Modifying user name:	trannguyen
#	Modification time:	Wed Dec  7 14:36:19 2022

@<TRIPOS>MOLECULE
ZINC26794156
 31 34 0 0 0
SMALL
GASTEIGER

@<TRIPOS>ATOM
      1 N          21.7729  -20.5345   14.0748 N.ar    1  UNL1       -0.2331
      2 C          21.7616  -19.9546   15.2968 C.ar    1  UNL1        0.1330
      3 C          21.7014  -18.6076   15.1116 C.ar    1  UNL1        0.0566
      4 C          21.6839  -18.3652   13.7353 C.ar    1  UNL1        0.1231
      5 N          21.7235  -19.5163   13.1144 N.ar    1  UNL1       -0.1663
      6 N          21.7987  -20.6170   16.5236 N.am    1  UNL1       -0.2693
      7 C          20.6612  -20.8078   17.2210 C.2     1  UNL1        0.2316
      8 O          19.6054  -20.4034   16.7818 O.2     1  UNL1       -0.2744
      9 H          22.6557  -20.9453   16.8802 H       1  UNL1        0.1563
     10 C          20.7013  -21.5235   18.5466 C.3     1  UNL1        0.1118
     11 C          20.2272  -22.9426   18.3658 C.ar    1  UNL1       -0.0099
     12 C          18.8732  -23.2213   18.3514 C.ar    1  UNL1       -0.0005
     13 C          18.4347  -24.5216   18.1881 C.ar    1  UNL1        0.0397
     14 C          19.3524  -25.5508   18.0380 C.ar    1  UNL1        0.1724
     15 C          20.7134  -25.2702   18.0493 C.ar    1  UNL1        0.1721
     16 C          21.1468  -23.9631   18.2152 C.ar    1  UNL1        0.0363
     17 O          21.6307  -26.2639   17.8954 O.3     1  UNL1       -0.4684
     18 C          21.1705  -27.6030   18.1067 C.3     1  UNL1        0.2526
     19 C          19.8402  -27.7775   17.3616 C.3     1  UNL1        0.2526
     20 O          18.9056  -26.8275   17.8865 O.3     1  UNL1       -0.4684
     21 C          21.8271  -21.9733   13.8039 C.3     1  UNL1        0.1552
     22 C          17.8567  -23.5374   13.6133 C.ar    1  UNL1       -0.0228
     23 C          18.3031  -22.6644   12.6389 C.ar    1  UNL1       -0.0045
     24 C          19.5881  -22.1584   12.7005 C.ar    1  UNL1       -0.0027
     25 C          20.4264  -22.5250   13.7367 C.ar    1  UNL1        0.0021
     26 C          19.9816  -23.4020   14.7082 C.ar    1  UNL1       -0.0027
     27 C          18.6954  -23.9051   14.6489 C.ar    1  UNL1       -0.0045
     28 C          15.4713  -22.9485   13.2782 C.3     1  UNL1        0.0044
     29 C          16.4557  -24.0886   13.5464 C.3     1  UNL1        0.0189
     30 C          16.3656  -25.1166   12.4167 C.3     1  UNL1        0.0044
     31 C          16.1078  -24.7605   14.8763 C.3     1  UNL1        0.0044
@<TRIPOS>BOND
     1    28    29    1
     2    29    30    1
     3    29    31    1
     4    29    22    1
     5    22    27   ar
     6    22    23   ar
     7    23    24   ar
     8    24    25   ar
     9    25    26   ar
    10    25    21    1
    11    26    27   ar
    12    21     1    1
    13     1     5   ar
    14     1     2   ar
    15     2     3   ar
    16     2     6    1
    17     3     4   ar
    18     4     5   ar
    19     6     7   am
    20     7     8    2
    21     7    10    1
    22    10    11    1
    23    11    16   ar
    24    11    12   ar
    25    12    13   ar
    26    13    14   ar
    27    14    20    1
    28    14    15   ar
    29    15    16   ar
    30    15    17    1
    31    17    18    1
    32    18    19    1
    33    19    20    1
    34     6     9    1
#	Name:			ZINC26798437
#	Creating user name:	trannguyen
#	Creation time:		Wed Dec  7 14:36:19 2022


#	Modifying user name:	trannguyen
#	Modification time:	Wed Dec  7 14:36:19 2022

@<TRIPOS>MOLECULE
ZINC26798437
 33 35 0 0 0
SMALL
GASTEIGER

@<TRIPOS>ATOM
      1 C          17.3796  -25.1843   15.5730 C.ar    1  UNL1        0.0450
      2 C          16.7032  -24.8377   14.4066 C.ar    1  UNL1        0.0145
      3 C          15.3886  -25.2072   14.2361 C.ar    1  UNL1        0.0058
      4 C          14.7322  -25.9310   15.2360 C.ar    1  UNL1        0.0538
      5 C          15.4125  -26.2722   16.4087 C.ar    1  UNL1        0.0058
      6 C          16.7288  -25.9051   16.5705 C.ar    1  UNL1        0.0145
      7 C          13.3233  -26.3288   15.0564 C.2     1  UNL1        0.2496
      8 O          12.4450  -25.4883   15.0918 O.2     1  UNL1       -0.2698
      9 N          13.0093  -27.6236   14.8533 N.am    1  UNL1       -0.2780
     10 H          13.7127  -28.3117   14.8859 H       1  UNL1        0.1553
     11 C          11.6823  -27.9902   14.5957 C.ar    1  UNL1        0.0850
     12 C          11.1431  -27.8072   13.3306 C.ar    1  UNL1        0.0178
     13 C           9.8351  -28.1747   13.0776 C.ar    1  UNL1        0.0015
     14 C           9.0578  -28.7152   14.0854 C.ar    1  UNL1        0.0032
     15 C           9.5865  -28.8953   15.3502 C.ar    1  UNL1        0.0382
     16 C          10.8985  -28.5344   15.6107 C.ar    1  UNL1        0.1520
     17 O          11.4197  -28.7106   16.8542 O.3     1  UNL1       -0.4702
     18 C          11.1396  -27.6994   17.8243 C.3     1  UNL1        0.2525
     19 N          18.7082  -24.8102   15.7417 N.pl3   1  UNL1       -0.3253
     20 H          18.9747  -24.2813   16.5282 H       1  UNL1        0.1473
     21 C          19.7116  -25.2033   14.7492 C.3     1  UNL1        0.1736
     22 N          20.3706  -22.9038   14.1191 N.am    1  UNL1       -0.2990
     23 C          20.7347  -24.1060   14.6077 C.2     1  UNL1        0.2427
     24 O          21.8860  -24.3047   14.9334 O.2     1  UNL1       -0.2732
     25 H          19.4361  -22.7426   13.8546 H       1  UNL1        0.1498
     26 C          21.3652  -21.8371   13.9815 C.3     1  UNL1        0.1161
     27 C          21.6078  -19.1170   13.0385 C.3     1  UNL1        0.0308
     28 C          21.1163  -19.3888   14.4369 C.ar    1  UNL1       -0.0242
     29 C          20.7812  -18.3362   15.2685 C.ar    1  UNL1       -0.0045
     30 C          20.3300  -18.5854   16.5509 C.ar    1  UNL1       -0.0003
     31 C          20.2139  -19.8871   17.0023 C.ar    1  UNL1       -0.0003
     32 C          20.5441  -20.9393   16.1691 C.ar    1  UNL1       -0.0029
     33 C          21.0003  -20.6899   14.8881 C.ar    1  UNL1       -0.0065
@<TRIPOS>BOND
     1    27    28    1
     2    28    33   ar
     3    28    29   ar
     4    29    30   ar
     5    30    31   ar
     6    31    32   ar
     7    32    33   ar
     8    33    26    1
     9    26    22    1
    10    22    23   am
    11    23    24    2
    12    23    21    1
    13    21    19    1
    14    19     1    1
    15     1     6   ar
    16     1     2   ar
    17     2     3   ar
    18     3     4   ar
    19     4     5   ar
    20     4     7    1
    21     5     6   ar
    22     7     8    2
    23     7     9   am
    24     9    11    1
    25    11    16   ar
    26    11    12   ar
    27    12    13   ar
    28    13    14   ar
    29    14    15   ar
    30    15    16   ar
    31    16    17    1
    32    17    18    1
    33    22    25    1
    34    19    20    1
    35     9    10    1
#	Name:			ZINC26847299
#	Creating user name:	trannguyen
#	Creation time:		Wed Dec  7 14:36:19 2022


#	Modifying user name:	trannguyen
#	Modification time:	Wed Dec  7 14:36:19 2022

@<TRIPOS>MOLECULE
ZINC26847299
 36 37 0 0 0
SMALL
GASTEIGER

@<TRIPOS>ATOM
      1 C          17.9101  -24.7530   14.0494 C.ar    1  UNL1        0.0560
      2 C          17.2003  -23.7193   13.4358 C.ar    1  UNL1        0.0046
      3 C          17.8747  -22.6216   12.9430 C.ar    1  UNL1        0.0014
      4 C          19.2512  -22.5410   13.0610 C.ar    1  UNL1        0.0169
      5 C          19.9611  -23.5645   13.6629 C.ar    1  UNL1        0.0894
      6 C          19.2987  -24.6681   14.1600 C.ar    1  UNL1        0.0215
      7 N          15.8464  -25.9424   14.6169 N.am    1  UNL1       -0.2311
      8 C          17.1937  -25.9325   14.5802 C.2     1  UNL1        0.2614
      9 O          17.8198  -26.8930   14.9836 O.2     1  UNL1       -0.2686
     10 H          15.3393  -25.1643   14.2903 H       1  UNL1        0.1731
     11 N          15.1677  -27.0600   15.1198 N.am    1  UNL1       -0.2456
     12 H          15.1851  -27.9105   14.6244 H       1  UNL1        0.1718
     13 C          14.4908  -26.9707   16.2819 C.2     1  UNL1        0.1473
     14 S          15.3180  -27.1493   17.7702 S.2     1  UNL1       -0.0174
     15 N          13.1630  -26.7406   16.2723 N.am    1  UNL1       -0.3149
     16 H          12.8213  -25.8377   16.0795 H       1  UNL1        0.1485
     17 C          12.2280  -27.8342   16.5487 C.3     1  UNL1        0.0910
     18 C          11.2160  -27.9410   15.4063 C.3     1  UNL1        0.0533
     19 C          11.5154  -26.8677   14.3577 C.3     1  UNL1        0.1440
     20 C          12.3421  -28.5247   12.8359 C.3     1  UNL1        0.1741
     21 O          12.5953  -27.3005   13.5280 O.3     1  UNL1       -0.3510
     22 S          21.7142  -23.4553   13.8014 S.O2    1  UNL1       -0.0577
     23 O          22.1232  -22.3925   12.9516 O.2     1  UNL1       -0.1842
     24 O          22.2157  -24.7776   13.6629 O.2     1  UNL1       -0.1842
     25 N          22.0542  -22.9801   15.3509 N.pl3   1  UNL1       -0.5334
     26 C          21.4361  -21.8442   15.8862 C.ar    1  UNL1       -0.0758
     27 C          21.8517  -20.5786   15.4989 C.ar    1  UNL1        0.0032
     28 C          21.2393  -19.4584   16.0286 C.ar    1  UNL1        0.1413
     29 C          20.2164  -19.5955   16.9486 C.ar    1  UNL1        0.0271
     30 C          19.7929  -20.8539   17.3349 C.ar    1  UNL1        0.0367
     31 C          20.4014  -21.9815   16.8089 C.ar    1  UNL1        0.1168
     32 N          21.6838  -18.1087   15.6145 N.pl3   1  UNL1        0.0576
     33 O          21.7969  -17.2238   16.4437 O.2     1  UNL1       -0.1261
     34 O          21.9413  -17.8844   14.4454 O.2     1  UNL1       -0.1261
     35 O          19.9900  -23.2198   17.1926 O.3     1  UNL1       -0.4733
     36 C          18.8908  -23.2850   18.1033 C.3     1  UNL1        0.2524
@<TRIPOS>UNITY_ATOM_ATTR
25 1
charge -1
@<TRIPOS>BOND
     1    20    21    1
     2    21    19    1
     3    19    18    1
     4    18    17    1
     5    17    15    1
     6    15    13    1
     7    13    14    2
     8    13    11    1
     9    11     7    1
    10     7     8   am
    11     8     9    2
    12     8     1    1
    13     1     6   ar
    14     1     2   ar
    15     2     3   ar
    16     3     4   ar
    17     4     5   ar
    18     5     6   ar
    19     5    22    1
    20    22    23    2
    21    22    24    2
    22    22    25    1
    23    25    26    1
    24    26    31   ar
    25    26    27   ar
    26    27    28   ar
    27    28    29   ar
    28    28    32    1
    29    29    30   ar
    30    30    31   ar
    31    31    35    1
    32    35    36    1
    33    32    33    2
    34    32    34    2
    35    15    16    1
    36    11    12    1
    37     7    10    1
#	Name:			ZINC26893750
#	Creating user name:	trannguyen
#	Creation time:		Wed Dec  7 14:36:19 2022


#	Modifying user name:	trannguyen
#	Modification time:	Wed Dec  7 14:36:19 2022

@<TRIPOS>MOLECULE
ZINC26893750
 42 46 0 0 0
SMALL
GASTEIGER

@<TRIPOS>ATOM
      1 N          18.5704  -24.4730   12.6109 N.4     1  UNL1        0.2869
      2 C          19.5577  -25.4636   13.0616 C.3     1  UNL1        0.1675
      3 C          20.4691  -24.8290   14.1147 C.3     1  UNL1        0.1675
      4 N          21.1337  -23.6519   13.5383 N.4     1  UNL1        0.2869
      5 C          20.1463  -22.6612   13.0875 C.3     1  UNL1        0.1675
      6 C          19.2350  -23.2959   12.0344 C.3     1  UNL1        0.1675
      7 H          18.0376  -24.1666   13.4250 H       1  UNL1        0.2073
      8 H          21.6665  -23.9582   12.7243 H       1  UNL1        0.2073
      9 C          17.6279  -25.0670   11.6533 C.3     1  UNL1        0.1393
     10 C          16.2101  -24.5856   11.9677 C.3     1  UNL1        0.2099
     11 O          15.8825  -23.4830   11.1197 O.3     1  UNL1       -0.3760
     12 H          16.5108  -22.7599   11.2723 H       1  UNL1        0.2107
     13 C          16.1339  -24.1441   13.4306 C.3     1  UNL1        0.2405
     14 O          16.0881  -25.2965   14.2742 O.3     1  UNL1       -0.4726
     15 C          13.4063  -27.7158   13.8575 C.ar    1  UNL1        0.0078
     16 C          14.6257  -27.0883   13.7204 C.ar    1  UNL1        0.0371
     17 C          14.8852  -25.9123   14.4123 C.ar    1  UNL1        0.1387
     18 C          13.9202  -25.3673   15.2494 C.ar    1  UNL1        0.0371
     19 C          12.6964  -25.9860   15.3877 C.ar    1  UNL1        0.0078
     20 C          12.4315  -27.1681   14.6935 C.ar    1  UNL1        0.0553
     21 C          11.1226  -27.8375   14.8430 C.ar    1  UNL1        0.2501
     22 N          10.4904  -28.0690   15.9700 N.ar    1  UNL1       -0.1068
     23 N           9.3794  -28.6669   15.7181 N.ar    1  UNL1       -0.1019
     24 C           9.2631  -28.8472   14.4324 C.ar    1  UNL1        0.3059
     25 O          10.3577  -28.3296   13.8478 O.2     1  UNL1       -0.4121
     26 C          22.0761  -23.0579   14.4959 C.3     1  UNL1        0.1393
     27 C          21.5669  -21.6805   14.9251 C.3     1  UNL1        0.2099
     28 O          22.6705  -20.7805   15.0447 O.3     1  UNL1       -0.3760
     29 H          23.2916  -21.1171   15.7094 H       1  UNL1        0.2107
     30 C          20.8557  -21.7974   16.2746 C.3     1  UNL1        0.2405
     31 O          21.3933  -22.9038   17.0021 O.3     1  UNL1       -0.4726
     32 C          20.5336  -23.5993   17.7909 C.ar    1  UNL1        0.1387
     33 C          20.9527  -24.7716   18.4067 C.ar    1  UNL1        0.0371
     34 C          20.0852  -25.4772   19.2124 C.ar    1  UNL1        0.0078
     35 C          18.7802  -25.0178   19.4004 C.ar    1  UNL1        0.0553
     36 C          18.3610  -23.8419   18.7752 C.ar    1  UNL1        0.0078
     37 C          19.2361  -23.1393   17.9752 C.ar    1  UNL1        0.0371
     38 C          17.8452  -25.7739   20.2594 C.ar    1  UNL1        0.2501
     39 N          18.1556  -26.4535   21.3387 N.ar    1  UNL1       -0.1068
     40 N          17.0891  -26.9794   21.8301 N.ar    1  UNL1       -0.1019
     41 C          16.0658  -26.6664   21.0859 C.ar    1  UNL1        0.3059
     42 O          16.5153  -25.8992   20.0773 O.2     1  UNL1       -0.4121
@<TRIPOS>UNITY_ATOM_ATTR
1 1
charge 1
4 1
charge 1
@<TRIPOS>BOND
     1    15    20   ar
     2    15    16   ar
     3    16    17   ar
     4    17    18   ar
     5    17    14    1
     6    18    19   ar
     7    19    20   ar
     8    20    21    1
     9    21    25   ar
    10    21    22   ar
    11    22    23   ar
    12    23    24   ar
    13    24    25   ar
    14    14    13    1
    15    13    10    1
    16    10     9    1
    17    10    11    1
    18     9     1    1
    19     1     6    1
    20     1     2    1
    21     2     3    1
    22     3     4    1
    23     4     5    1
    24     4    26    1
    25     5     6    1
    26    26    27    1
    27    27    30    1
    28    27    28    1
    29    30    31    1
    30    31    32    1
    31    32    37   ar
    32    32    33   ar
    33    33    34   ar
    34    34    35   ar
    35    35    36   ar
    36    35    38    1
    37    36    37   ar
    38    38    42   ar
    39    38    39   ar
    40    39    40   ar
    41    40    41   ar
    42    41    42   ar
    43     1     7    1
    44     4     8    1
    45    28    29    1
    46    11    12    1
#	Name:			ZINC26937153
#	Creating user name:	trannguyen
#	Creation time:		Wed Dec  7 14:36:19 2022


#	Modifying user name:	trannguyen
#	Modification time:	Wed Dec  7 14:36:19 2022

@<TRIPOS>MOLECULE
ZINC26937153
 31 32 0 0 0
SMALL
GASTEIGER

@<TRIPOS>ATOM
      1 C          20.9293  -27.3272   12.5738 C.2     1  UNL1        0.2614
      2 O          20.5457  -27.8253   13.6155 O.2     1  UNL1       -0.2686
      3 N          20.3870  -26.1724   12.1389 N.am    1  UNL1       -0.2976
      4 H          20.6975  -25.7694   11.2960 H       1  UNL1        0.1500
      5 C          23.9386  -28.4834   10.8361 C.ar    1  UNL1        0.0846
      6 C          23.2778  -27.5695   11.6884 C.ar    1  UNL1        0.0055
      7 C          21.9830  -27.9840   11.7903 C.ar    1  UNL1        0.1066
      8 N          21.8325  -29.1248   11.0323 N.ar    1  UNL1       -0.3529
      9 C          23.0063  -29.4324   10.4583 C.ar    1  UNL1        0.0400
     10 C          23.2629  -30.6084    9.5516 C.3     1  UNL1        0.0500
     11 C          23.8874  -26.3621   12.3530 C.3     1  UNL1        0.0329
     12 H          20.9963  -29.6337   10.9281 H       1  UNL1        0.1658
     13 C          25.3529  -28.4356   10.4296 C.2     1  UNL1        0.3420
     14 O          26.2262  -28.6842   11.2374 O.2     1  UNL1       -0.2449
     15 O          25.6791  -28.1159    9.1617 O.3     1  UNL1       -0.4454
     16 C          24.8471  -26.5546    7.4883 C.3     1  UNL1        0.0513
     17 C          25.6192  -26.7110    8.7999 C.3     1  UNL1        0.2089
     18 C          19.3355  -25.5170   12.9207 C.3     1  UNL1        0.0946
     19 C          18.2459  -25.0013   11.9784 C.3     1  UNL1        0.0262
     20 C          19.9257  -24.3611   13.6866 C.ar    1  UNL1       -0.0013
     21 C          19.8927  -23.0882   13.1481 C.ar    1  UNL1        0.0006
     22 C          20.4277  -22.0237   13.8493 C.ar    1  UNL1        0.0398
     23 C          21.0087  -22.2330   15.0897 C.ar    1  UNL1        0.1720
     24 C          21.0469  -23.5152   15.6291 C.ar    1  UNL1        0.1721
     25 C          20.5038  -24.5769   14.9237 C.ar    1  UNL1        0.0374
     26 O          21.6156  -23.7257   16.8465 O.3     1  UNL1       -0.4684
     27 C          20.7306  -23.8944   17.9555 C.3     1  UNL1        0.2526
     28 O          21.5409  -21.1879   15.7781 O.3     1  UNL1       -0.4761
     29 C          20.6929  -20.0598   16.0024 C.3     1  UNL1        0.1663
     30 C          19.9296  -20.2485   17.3150 C.3     1  UNL1        0.0472
     31 C          21.5435  -18.7908   16.0851 C.3     1  UNL1        0.0472
@<TRIPOS>BOND
     1    16    17    1
     2    17    15    1
     3    15    13    1
     4    13    14    2
     5    13     5    1
     6     5     9   ar
     7     5     6   ar
     8     6     7   ar
     9     6    11    1
    10     7     8   ar
    11     7     1    1
    12     8     9   ar
    13     9    10    1
    14     1     2    2
    15     1     3   am
    16     3    18    1
    17    18    19    1
    18    18    20    1
    19    20    25   ar
    20    20    21   ar
    21    21    22   ar
    22    22    23   ar
    23    23    24   ar
    24    23    28    1
    25    24    25   ar
    26    24    26    1
    27    26    27    1
    28    28    29    1
    29    29    30    1
    30    29    31    1
    31     8    12    1
    32     3     4    1
#	Name:			ZINC26941557
#	Creating user name:	trannguyen
#	Creation time:		Wed Dec  7 14:36:20 2022


#	Modifying user name:	trannguyen
#	Modification time:	Wed Dec  7 14:36:20 2022

@<TRIPOS>MOLECULE
ZINC26941557
 35 37 0 0 0
SMALL
GASTEIGER

@<TRIPOS>ATOM
      1 N          21.2453  -23.5835   16.9898 N.am    1  UNL1       -0.2679
      2 C          20.8532  -22.3016   16.8511 C.2     1  UNL1        0.3102
      3 O          19.8216  -21.9221   17.3700 O.2     1  UNL1       -0.2521
      4 N          21.6048  -21.4404   16.1371 N.am    1  UNL1       -0.2387
      5 C          21.2126  -20.1583   15.9984 C.2     1  UNL1        0.2392
      6 O          20.1837  -19.7799   16.5160 O.2     1  UNL1       -0.2737
      7 H          22.1133  -23.8746   16.6278 H       1  UNL1        0.1564
      8 H          22.4403  -21.7477   15.7168 H       1  UNL1        0.1591
      9 C          18.7827  -26.3169   18.9590 C.ar    1  UNL1        0.1723
     10 C          19.7025  -25.5694   19.6764 C.ar    1  UNL1        0.0413
     11 C          20.5180  -24.6640   19.0244 C.ar    1  UNL1        0.0180
     12 C          20.4177  -24.5019   17.6492 C.ar    1  UNL1        0.0548
     13 C          19.4972  -25.2493   16.9275 C.ar    1  UNL1        0.0547
     14 C          18.6830  -26.1603   17.5800 C.ar    1  UNL1        0.1734
     15 O          17.9807  -27.2083   19.6023 O.3     1  UNL1       -0.4724
     16 C          17.1290  -26.6926   20.6274 C.3     1  UNL1        0.2056
     17 C          14.9568  -27.0898   19.4588 C.3     1  UNL1        0.0040
     18 C          15.9126  -26.0192   19.9889 C.3     1  UNL1        0.0473
     19 O          17.7841  -26.8973   16.8743 O.3     1  UNL1       -0.4724
     20 C          17.1786  -26.2712   15.7415 C.3     1  UNL1        0.2056
     21 C          16.0264  -25.3787   16.2072 C.3     1  UNL1        0.0473
     22 C          14.8216  -25.5789   15.2856 C.3     1  UNL1        0.0040
     23 C          22.0530  -19.1954   15.2001 C.3     1  UNL1        0.1281
     24 C          22.2608  -17.9110   16.0052 C.3     1  UNL1        0.0217
     25 S          21.2106  -18.8040   13.6466 S.3     1  UNL1       -0.1093
     26 C          20.9145  -20.4318   13.0405 C.ar    1  UNL1        0.0083
     27 N          19.7915  -21.1816   13.2428 N.ar    1  UNL1       -0.2488
     28 C          20.0111  -22.3616   12.5873 C.ar    1  UNL1        0.1178
     29 N          21.1923  -22.2887   12.0422 N.ar    1  UNL1       -0.3520
     30 N          21.7320  -21.1532   12.3090 N.ar    1  UNL1       -0.5548
     31 C          19.0624  -23.5301   12.5098 C.3     1  UNL1        0.0571
     32 C          18.3027  -23.5058   11.1674 C.3     1  UNL1        0.0075
     33 C          16.8764  -23.9909   11.5302 C.3     1  UNL1        0.0005
     34 C          16.6327  -23.3350   12.9120 C.3     1  UNL1        0.0005
     35 C          18.0012  -23.4219   13.6187 C.3     1  UNL1        0.0075
@<TRIPOS>UNITY_ATOM_ATTR
30 1
charge -1
@<TRIPOS>BOND
     1    17    18    1
     2    18    16    1
     3    16    15    1
     4    15     9    1
     5     9    14   ar
     6     9    10   ar
     7    10    11   ar
     8    11    12   ar
     9    12    13   ar
    10    12     1    1
    11    13    14   ar
    12    14    19    1
    13    19    20    1
    14    20    21    1
    15    21    22    1
    16     1     2   am
    17     2     3    2
    18     2     4   am
    19     4     5   am
    20     5     6    2
    21     5    23    1
    22    23    24    1
    23    23    25    1
    24    25    26    1
    25    26    27   ar
    26    26    30   ar
    27    27    28   ar
    28    28    31    1
    29    28    29   ar
    30    29    30   ar
    31    31    35    1
    32    31    32    1
    33    32    33    1
    34    33    34    1
    35    34    35    1
    36     1     7    1
    37     4     8    1
#	Name:			ZINC26942951
#	Creating user name:	trannguyen
#	Creation time:		Wed Dec  7 14:36:19 2022


#	Modifying user name:	trannguyen
#	Modification time:	Wed Dec  7 14:36:19 2022

@<TRIPOS>MOLECULE
ZINC26942951
 33 34 0 0 0
SMALL
GASTEIGER

@<TRIPOS>ATOM
      1 C          17.0225  -24.1172   12.3693 C.2     1  UNL1        0.3289
      2 O          16.4167  -24.7008   11.5020 O.2     1  UNL1       -0.2491
      3 C          18.4316  -23.6458   12.1175 C.3     1  UNL1        0.1743
      4 S          18.7233  -22.1056   13.0225 S.3     1  UNL1       -0.0634
      5 N          21.2443  -22.4787   14.1838 N.ar    1  UNL1       -0.2665
      6 C          22.5459  -22.3476   13.7776 C.ar    1  UNL1        0.2072
      7 N          22.5262  -21.9400   12.5400 N.ar    1  UNL1       -0.1247
      8 N          21.3132  -21.8048   12.1377 N.ar    1  UNL1       -0.1217
      9 C          20.4833  -22.1267   13.1029 C.ar    1  UNL1        0.1976
     10 C          19.3930  -24.1531   19.2825 C.3     1  UNL1        0.0319
     11 C          19.8842  -23.7089   17.9289 C.ar    1  UNL1       -0.0112
     12 C          19.9065  -22.3636   17.6100 C.ar    1  UNL1       -0.0019
     13 C          20.3566  -21.9534   16.3704 C.ar    1  UNL1        0.0174
     14 C          20.7873  -22.8929   15.4433 C.ar    1  UNL1        0.0682
     15 C          20.7695  -24.2423   15.7671 C.ar    1  UNL1        0.0287
     16 C          20.3127  -24.6481   17.0073 C.ar    1  UNL1        0.0551
     17 CL         20.2832  -26.3361   17.4114 Cl      1  UNL1       -0.0825
     18 O          16.4405  -23.8887   13.5571 O.3     1  UNL1       -0.4422
     19 C          16.1836  -25.0439   14.3983 C.3     1  UNL1        0.2445
     20 C          16.8740  -24.8538   15.7505 C.3     1  UNL1        0.0575
     21 C          14.6987  -25.1917   14.6090 C.2     1  UNL1        0.2696
     22 O          14.0237  -24.2190   14.8695 O.2     1  UNL1       -0.2708
     23 N          14.1212  -26.4052   14.5077 N.am    1  UNL1       -0.2367
     24 C          12.7932  -26.5374   14.6961 C.2     1  UNL1        0.3068
     25 O          12.1165  -25.5622   14.9572 O.2     1  UNL1       -0.2524
     26 N          12.2157  -27.7509   14.5949 N.am    1  UNL1       -0.2812
     27 H          14.6694  -27.1951   14.2961 H       1  UNL1        0.1592
     28 H          12.7639  -28.5409   14.3833 H       1  UNL1        0.1512
     29 C          10.7723  -27.8946   14.7996 C.3     1  UNL1        0.1951
     30 C          10.0832  -28.0973   13.4487 C.3     1  UNL1        0.4155
     31 F           8.8571  -28.7425   13.6428 F       1  UNL1       -0.1682
     32 F           9.8655  -26.8541   12.8451 F       1  UNL1       -0.1682
     33 F          10.8968  -28.8805   12.6230 F       1  UNL1       -0.1682
@<TRIPOS>BOND
     1    10    11    1
     2    11    16   ar
     3    11    12   ar
     4    12    13   ar
     5    13    14   ar
     6    14    15   ar
     7    14     5    1
     8    15    16   ar
     9    16    17    1
    10     5     9   ar
    11     5     6   ar
    12     6     7   ar
    13     7     8   ar
    14     8     9   ar
    15     9     4    1
    16     4     3    1
    17     3     1    1
    18     1     2    2
    19     1    18    1
    20    18    19    1
    21    19    20    1
    22    19    21    1
    23    21    22    2
    24    21    23   am
    25    23    24   am
    26    24    25    2
    27    24    26   am
    28    26    29    1
    29    29    30    1
    30    30    31    1
    31    30    32    1
    32    30    33    1
    33    23    27    1
    34    26    28    1
#	Name:			ZINC27145744
#	Creating user name:	trannguyen
#	Creation time:		Wed Dec  7 14:36:19 2022


#	Modifying user name:	trannguyen
#	Modification time:	Wed Dec  7 14:36:19 2022

@<TRIPOS>MOLECULE
ZINC27145744
 35 36 0 0 0
SMALL
GASTEIGER

@<TRIPOS>ATOM
      1 C          20.2598  -28.2585   15.8712 C.2     1  UNL1        0.2855
      2 O          21.4297  -28.2543   16.1910 O.2     1  UNL1       -0.2694
      3 N          19.9004  -28.6599   14.6358 N.am    1  UNL1       -0.2305
      4 H          18.9508  -28.6635   14.3762 H       1  UNL1        0.1729
      5 N          20.8782  -29.0722   13.7211 N.am    1  UNL1       -0.2302
      6 C          21.2144  -28.2738   12.6885 C.2     1  UNL1        0.2614
      7 O          20.6692  -27.1961   12.5509 O.2     1  UNL1       -0.2686
      8 H          21.3198  -29.9450   13.8325 H       1  UNL1        0.1731
      9 C          22.2463  -28.7088   11.7232 C.ar    1  UNL1        0.0561
     10 C          22.0831  -29.8984   11.0112 C.ar    1  UNL1        0.0046
     11 C          23.0474  -30.2962   10.1086 C.ar    1  UNL1        0.0015
     12 C          24.1796  -29.5242    9.9159 C.ar    1  UNL1        0.0183
     13 C          24.3500  -28.3470   10.6222 C.ar    1  UNL1        0.1059
     14 C          23.3905  -27.9350   11.5242 C.ar    1  UNL1        0.0229
     15 S          25.7956  -27.3718   10.3699 S.O2    1  UNL1        0.0105
     16 O          26.5808  -28.1185    9.4506 O.2     1  UNL1       -0.1686
     17 O          25.3077  -26.0824   10.0256 O.2     1  UNL1       -0.1686
     18 C          26.6111  -27.3193   11.9895 C.3     1  UNL1        0.1816
     19 C          19.2080  -27.8152   16.8551 C.3     1  UNL1        0.3238
     20 O          18.1440  -27.1671   16.1552 O.2     1  UNL1       -0.3671
     21 C          18.6175  -24.8898   15.8367 C.2     1  UNL1        0.1401
     22 N          18.5633  -26.0850   15.3439 N.2     1  UNL1       -0.0808
     23 C          19.8793  -21.6403   13.4067 C.ar    1  UNL1        0.1722
     24 C          20.1674  -21.6442   14.7640 C.ar    1  UNL1        0.0401
     25 C          19.7545  -22.6940   15.5566 C.ar    1  UNL1        0.0050
     26 C          19.0544  -23.7624   14.9914 C.ar    1  UNL1        0.0256
     27 C          18.7693  -23.7612   13.6240 C.ar    1  UNL1        0.0417
     28 C          19.1814  -22.7028   12.8363 C.ar    1  UNL1        0.1724
     29 O          18.9051  -22.6982   11.5047 O.3     1  UNL1       -0.4684
     30 C          18.0442  -23.7294   11.0172 C.3     1  UNL1        0.2526
     31 O          20.2837  -20.6004   12.6307 O.3     1  UNL1       -0.4724
     32 C          21.5895  -20.0755   12.8784 C.3     1  UNL1        0.2056
     33 C          21.4780  -18.6100   13.3034 C.3     1  UNL1        0.0473
     34 C          20.8975  -18.1291   15.6854 C.3     1  UNL1        0.0001
     35 C          22.0392  -18.4447   14.7171 C.3     1  UNL1        0.0038
@<TRIPOS>BOND
     1    34    35    1
     2    35    33    1
     3    33    32    1
     4    32    31    1
     5    31    23    1
     6    23    28   ar
     7    23    24   ar
     8    24    25   ar
     9    25    26   ar
    10    26    27   ar
    11    26    21    1
    12    27    28   ar
    13    28    29    1
    14    29    30    1
    15    21    22    2
    16    22    20    1
    17    20    19    1
    18    19     1    1
    19     1     2    2
    20     1     3   am
    21     3     5    1
    22     5     6   am
    23     6     7    2
    24     6     9    1
    25     9    14   ar
    26     9    10   ar
    27    10    11   ar
    28    11    12   ar
    29    12    13   ar
    30    13    14   ar
    31    13    15    1
    32    15    16    2
    33    15    17    2
    34    15    18    1
    35     3     4    1
    36     5     8    1
#	Name:			ZINC27190370
#	Creating user name:	trannguyen
#	Creation time:		Wed Dec  7 14:36:19 2022


#	Modifying user name:	trannguyen
#	Modification time:	Wed Dec  7 14:36:19 2022

@<TRIPOS>MOLECULE
ZINC27190370
 32 34 0 0 0
SMALL
GASTEIGER

@<TRIPOS>ATOM
      1 C          21.5694  -19.5730   14.1330 C.3     1  UNL1        0.2315
      2 C          21.8401  -18.2695   13.3790 C.3     1  UNL1        0.0560
      3 C          21.3149  -20.6816   13.1444 C.2     1  UNL1        0.2279
      4 O          21.5818  -20.5215   11.9708 O.2     1  UNL1       -0.2860
      5 C          20.5324  -24.0105   14.3246 C.ar    1  UNL1        0.0846
      6 C          21.4773  -23.0266   13.9625 C.ar    1  UNL1        0.0040
      7 C          20.7646  -21.9095   13.5840 C.ar    1  UNL1        0.0913
      8 N          19.4208  -22.1952   13.7143 N.ar    1  UNL1       -0.3542
      9 C          19.2766  -23.4544   14.1527 C.ar    1  UNL1        0.0400
     10 C          17.9650  -24.1469   14.4195 C.3     1  UNL1        0.0500
     11 C          22.9773  -23.1700   13.9860 C.3     1  UNL1        0.0329
     12 H          18.6841  -21.5727   13.5165 H       1  UNL1        0.1657
     13 C          20.8274  -25.3738   14.7974 C.2     1  UNL1        0.3420
     14 O          20.6284  -25.6704   15.9590 O.2     1  UNL1       -0.2449
     15 O          21.3178  -26.2923   13.9420 O.3     1  UNL1       -0.4454
     16 C          19.9417  -28.2288   13.4067 C.3     1  UNL1        0.0513
     17 C          20.3967  -26.8378   12.9609 C.3     1  UNL1        0.2089
     18 O          20.4050  -19.4069   14.9843 O.3     1  UNL1       -0.4402
     19 C          20.6022  -19.4954   16.3156 C.2     1  UNL1        0.3574
     20 O          20.9482  -18.5146   16.9456 O.2     1  UNL1       -0.2433
     21 C          20.3991  -20.7755   17.0039 C.ar    1  UNL1        0.1333
     22 C          19.2003  -21.3910   17.1874 C.ar    1  UNL1        0.0250
     23 C          19.4365  -22.5936   17.8942 C.ar    1  UNL1        0.0174
     24 C          18.5969  -23.6167   18.3573 C.ar    1  UNL1        0.0046
     25 C          19.1271  -24.6833   19.0195 C.ar    1  UNL1        0.0370
     26 C          20.5014  -24.7679   19.2424 C.ar    1  UNL1        0.1402
     27 C          21.3477  -23.7708   18.7953 C.ar    1  UNL1        0.0538
     28 C          20.8258  -22.6747   18.1167 C.ar    1  UNL1        0.0598
     29 N          21.3973  -21.5526   17.5643 N.ar    1  UNL1       -0.3480
     30 H          22.3581  -21.3376   17.5671 H       1  UNL1        0.1661
     31 O          21.0120  -25.8384   19.9046 O.3     1  UNL1       -0.4714
     32 C          21.6387  -26.8511   19.1148 C.3     1  UNL1        0.2525
@<TRIPOS>BOND
     1    16    17    1
     2    17    15    1
     3    15    13    1
     4    13    14    2
     5    13     5    1
     6     5     9   ar
     7     5     6   ar
     8     6     7   ar
     9     6    11    1
    10     7     8   ar
    11     7     3    1
    12     8     9   ar
    13     9    10    1
    14     3     4    2
    15     3     1    1
    16     1     2    1
    17     1    18    1
    18    18    19    1
    19    19    20    2
    20    19    21    1
    21    21    29   ar
    22    21    22   ar
    23    22    23   ar
    24    23    28   ar
    25    23    24   ar
    26    24    25   ar
    27    25    26   ar
    28    26    27   ar
    29    26    31    1
    30    27    28   ar
    31    28    29   ar
    32    31    32    1
    33     8    12    1
    34    29    30    1
#	Name:			ZINC27250760
#	Creating user name:	trannguyen
#	Creation time:		Wed Dec  7 14:36:19 2022


#	Modifying user name:	trannguyen
#	Modification time:	Wed Dec  7 14:36:19 2022

@<TRIPOS>MOLECULE
ZINC27250760
 37 39 0 0 0
SMALL
GASTEIGER

@<TRIPOS>ATOM
      1 N          22.4483  -21.5945   14.2306 N.am    1  UNL1       -0.2759
      2 C          21.7275  -20.7443   13.4731 C.2     1  UNL1        0.2668
      3 O          21.4386  -21.0431   12.3339 O.2     1  UNL1       -0.2709
      4 H          22.6828  -21.3519   15.1555 H       1  UNL1        0.1554
      5 C          22.2965  -24.0728   13.9022 C.ar    1  UNL1        0.0919
      6 C          22.8962  -25.1484   13.2643 C.ar    1  UNL1       -0.0035
      7 C          23.9958  -24.8958   12.4904 C.ar    1  UNL1        0.0802
      8 S          24.2000  -23.1331   12.6619 S.2     1  UNL1       -0.0678
      9 C          22.8581  -22.8062   13.7094 C.ar    1  UNL1        0.0869
     10 C          22.3552  -26.5465   13.4177 C.3     1  UNL1        0.0320
     11 C          24.8072  -25.8394   11.7184 C.2     1  UNL1        0.2517
     12 O          25.6211  -26.5464   12.2835 O.2     1  UNL1       -0.2696
     13 N          24.6486  -25.9290   10.3830 N.am    1  UNL1       -0.2988
     14 C          25.4603  -26.8730    9.6107 C.3     1  UNL1        0.1110
     15 H          23.9874  -25.3601    9.9266 H       1  UNL1        0.1498
     16 C          21.1137  -24.2572   14.7506 C.2     1  UNL1        0.3426
     17 O          21.1686  -24.9907   15.7190 O.2     1  UNL1       -0.2448
     18 O          19.9661  -23.6133   14.4567 O.3     1  UNL1       -0.4454
     19 C          18.3810  -22.7601   12.8168 C.3     1  UNL1        0.0513
     20 C          19.3844  -23.8659   13.1506 C.3     1  UNL1        0.2089
     21 C          21.2806  -19.4222   14.0417 C.3     1  UNL1        0.2447
     22 C          21.8594  -18.2832   13.1999 C.3     1  UNL1        0.0575
     23 O          21.7509  -19.3000   15.4100 O.3     1  UNL1       -0.4387
     24 C          20.8232  -19.3803   16.3857 C.2     1  UNL1        0.3574
     25 O          20.2183  -18.3843   16.7330 O.2     1  UNL1       -0.2433
     26 C          20.5440  -20.6696   17.0283 C.ar    1  UNL1        0.1333
     27 C          19.3417  -21.3054   17.0318 C.ar    1  UNL1        0.0250
     28 C          19.4944  -22.5134   17.7523 C.ar    1  UNL1        0.0174
     29 C          18.6152  -23.5564   18.0765 C.ar    1  UNL1        0.0046
     30 C          19.0594  -24.6168   18.8085 C.ar    1  UNL1        0.0370
     31 C          20.3845  -24.6751   19.2402 C.ar    1  UNL1        0.1402
     32 C          21.2688  -23.6585   18.9317 C.ar    1  UNL1        0.0538
     33 C          20.8343  -22.5679   18.1858 C.ar    1  UNL1        0.0598
     34 N          21.4602  -21.4305   17.7325 N.ar    1  UNL1       -0.3480
     35 H          22.4044  -21.1962   17.8841 H       1  UNL1        0.1661
     36 O          20.8094  -25.7397   19.9690 O.3     1  UNL1       -0.4714
     37 C          20.9890  -26.9736   19.2711 C.3     1  UNL1        0.2525
@<TRIPOS>BOND
     1    19    20    1
     2    20    18    1
     3    18    16    1
     4    16    17    2
     5    16     5    1
     6     5     9   ar
     7     5     6   ar
     8     6     7   ar
     9     6    10    1
    10     7     8   ar
    11     7    11    1
    12     8     9   ar
    13     9     1    1
    14     1     2   am
    15     2     3    2
    16     2    21    1
    17    21    22    1
    18    21    23    1
    19    23    24    1
    20    24    25    2
    21    24    26    1
    22    26    34   ar
    23    26    27   ar
    24    27    28   ar
    25    28    33   ar
    26    28    29   ar
    27    29    30   ar
    28    30    31   ar
    29    31    32   ar
    30    31    36    1
    31    32    33   ar
    32    33    34   ar
    33    36    37    1
    34    11    12    2
    35    11    13   am
    36    13    14    1
    37     1     4    1
    38    34    35    1
    39    13    15    1
#	Name:			ZINC27286405
#	Creating user name:	trannguyen
#	Creation time:		Wed Dec  7 14:36:19 2022


#	Modifying user name:	trannguyen
#	Modification time:	Wed Dec  7 14:36:19 2022

@<TRIPOS>MOLECULE
ZINC27286405
 36 39 0 0 0
SMALL
GASTEIGER

@<TRIPOS>ATOM
      1 C          18.6820  -25.3011   15.3549 C.2     1  UNL1        0.2494
      2 O          19.3795  -25.8788   14.5441 O.2     1  UNL1       -0.2699
      3 N          19.2455  -24.4893   16.2715 N.am    1  UNL1       -0.2666
      4 C          14.4690  -25.8399   15.2999 C.ar    1  UNL1        0.1220
      5 C          15.0345  -24.7642   14.6385 C.ar    1  UNL1        0.0200
      6 C          16.4018  -24.5806   14.6567 C.ar    1  UNL1        0.0059
      7 C          17.2156  -25.4888   15.3355 C.ar    1  UNL1        0.0537
      8 C          16.6392  -26.5748   15.9962 C.ar    1  UNL1        0.0059
      9 C          15.2702  -26.7439   15.9746 C.ar    1  UNL1        0.0200
     10 S          12.7214  -26.0637   15.2768 S.O2    1  UNL1        0.0605
     11 O          12.1497  -24.7765   15.0881 O.2     1  UNL1       -0.1530
     12 O          12.4021  -26.8830   16.3930 O.2     1  UNL1       -0.1530
     13 N          12.3587  -26.9458   13.9230 N.3     1  UNL1       -0.1749
     14 H          11.5569  -26.4940   13.4832 H       1  UNL1        0.1492
     15 C          12.0296  -28.3683   14.0421 C.3     1  UNL1        0.1175
     16 C           9.8616  -27.9711   12.9919 C.2     1  UNL1       -0.0034
     17 C          10.9375  -28.7150   13.0632 C.2     1  UNL1       -0.0074
     18 C          20.6824  -24.2096   16.2176 C.3     1  UNL1        0.1578
     19 C          20.9189  -22.9442   15.4341 C.ar    1  UNL1        0.1396
     20 N          20.9474  -23.0216   14.0780 N.ar    1  UNL1       -0.3085
     21 C          21.1507  -21.9130   13.3286 C.ar    1  UNL1        0.2599
     22 O          21.1742  -21.9672   12.1128 O.2     1  UNL1       -0.2671
     23 C          21.3482  -20.6416   14.0406 C.ar    1  UNL1        0.0736
     24 C          21.5707  -19.4444   13.3634 C.ar    1  UNL1        0.0062
     25 C          21.7500  -18.2821   14.0808 C.ar    1  UNL1        0.0003
     26 C          21.7107  -18.2956   15.4691 C.ar    1  UNL1        0.0015
     27 C          21.4922  -19.4678   16.1571 C.ar    1  UNL1        0.0193
     28 C          21.3075  -20.6592   15.4524 C.ar    1  UNL1        0.0872
     29 N          21.0900  -21.8367   16.0898 N.ar    1  UNL1       -0.2306
     30 H          20.8189  -23.8920   13.6363 H       1  UNL1        0.1701
     31 C          18.4208  -23.8866   17.3217 C.3     1  UNL1        0.1235
     32 C          18.7740  -24.5152   18.6711 C.3     1  UNL1        0.1351
     33 C          17.6586  -24.2228   19.6934 C.3     1  UNL1        0.0339
     34 C          17.1823  -25.6243   20.1466 C.3     1  UNL1        0.0346
     35 C          18.3950  -26.5152   19.7752 C.3     1  UNL1        0.1422
     36 O          18.8697  -25.9429   18.5353 O.3     1  UNL1       -0.3545
@<TRIPOS>BOND
     1    16    17    2
     2    17    15    1
     3    15    13    1
     4    13    10    1
     5    10    11    2
     6    10    12    2
     7    10     4    1
     8     4     9   ar
     9     4     5   ar
    10     5     6   ar
    11     6     7   ar
    12     7     8   ar
    13     7     1    1
    14     8     9   ar
    15     1     2    2
    16     1     3   am
    17     3    18    1
    18     3    31    1
    19    18    19    1
    20    19    29   ar
    21    19    20   ar
    22    20    21   ar
    23    21    22    2
    24    21    23   ar
    25    23    28   ar
    26    23    24   ar
    27    24    25   ar
    28    25    26   ar
    29    26    27   ar
    30    27    28   ar
    31    28    29   ar
    32    31    32    1
    33    32    36    1
    34    32    33    1
    35    33    34    1
    36    34    35    1
    37    35    36    1
    38    13    14    1
    39    20    30    1
#	Name:			ZINC27377270
#	Creating user name:	trannguyen
#	Creation time:		Wed Dec  7 14:36:20 2022


#	Modifying user name:	trannguyen
#	Modification time:	Wed Dec  7 14:36:20 2022

@<TRIPOS>MOLECULE
ZINC27377270
 34 35 0 0 0
SMALL
GASTEIGER

@<TRIPOS>ATOM
      1 N          22.5465  -22.4599   14.6911 N.am    1  UNL1       -0.2937
      2 C          22.1878  -21.3807   13.9679 C.2     1  UNL1        0.2631
      3 O          22.0413  -21.4763   12.7678 O.2     1  UNL1       -0.2712
      4 H          22.6653  -22.3823   15.6653 H       1  UNL1        0.1500
      5 C          21.9685  -20.0552   14.6505 C.3     1  UNL1        0.2444
      6 C          20.6321  -19.4634   14.1979 C.3     1  UNL1        0.0575
      7 O          21.9498  -20.2458   16.0666 O.3     1  UNL1       -0.4397
      8 C          20.7861  -19.9981   16.7026 C.2     1  UNL1        0.3418
      9 O          20.4563  -18.8524   16.9427 O.2     1  UNL1       -0.2449
     10 C          19.9215  -21.1072   17.1034 C.2     1  UNL1        0.0819
     11 C          20.3938  -22.0681   17.9244 C.2     1  UNL1        0.0066
     12 C          19.5236  -23.1844   18.3278 C.ar    1  UNL1        0.0002
     13 C          20.0480  -24.2566   19.0566 C.ar    1  UNL1       -0.0003
     14 C          19.2252  -25.2966   19.4345 C.ar    1  UNL1       -0.0043
     15 C          17.8858  -25.2858   19.0862 C.ar    1  UNL1       -0.0228
     16 C          17.3604  -24.2307   18.3606 C.ar    1  UNL1       -0.0043
     17 C          18.1691  -23.1810   17.9793 C.ar    1  UNL1       -0.0003
     18 C          16.9947  -26.4290   19.4987 C.3     1  UNL1        0.0189
     19 C          16.5025  -26.2013   20.9294 C.3     1  UNL1        0.0044
     20 C          15.7946  -26.5072   18.5528 C.3     1  UNL1        0.0044
     21 C          17.7823  -27.7390   19.4327 C.3     1  UNL1        0.0044
     22 C          22.7595  -23.7485   14.0275 C.3     1  UNL1        0.1761
     23 N          20.6300  -24.3751   15.1191 N.am    1  UNL1       -0.2830
     24 C          21.4976  -24.5686   14.1060 C.2     1  UNL1        0.2462
     25 O          21.2627  -25.4027   13.2574 O.2     1  UNL1       -0.2729
     26 H          20.8535  -23.7498   15.8460 H       1  UNL1        0.1549
     27 C          20.5330  -26.9021   16.4239 C.3     1  UNL1        0.0323
     28 C          19.3199  -26.2991   15.7637 C.ar    1  UNL1       -0.0087
     29 C          18.1146  -26.9730   15.7850 C.ar    1  UNL1       -0.0031
     30 C          17.0023  -26.4228   15.1749 C.ar    1  UNL1       -0.0006
     31 C          17.0916  -25.1945   14.5459 C.ar    1  UNL1       -0.0031
     32 C          18.2928  -24.5132   14.5256 C.ar    1  UNL1       -0.0087
     33 C          19.4115  -25.0628   15.1378 C.ar    1  UNL1        0.0423
     34 C          18.3892  -23.1745   13.8404 C.3     1  UNL1        0.0323
@<TRIPOS>BOND
     1    27    28    1
     2    28    33   ar
     3    28    29   ar
     4    29    30   ar
     5    30    31   ar
     6    31    32   ar
     7    32    33   ar
     8    32    34    1
     9    33    23    1
    10    23    24   am
    11    24    25    2
    12    24    22    1
    13    22     1    1
    14     1     2   am
    15     2     3    2
    16     2     5    1
    17     5     6    1
    18     5     7    1
    19     7     8    1
    20     8     9    2
    21     8    10    1
    22    10    11    2
    23    11    12    1
    24    12    17   ar
    25    12    13   ar
    26    13    14   ar
    27    14    15   ar
    28    15    16   ar
    29    15    18    1
    30    16    17   ar
    31    18    19    1
    32    18    20    1
    33    18    21    1
    34    23    26    1
    35     1     4    1
#	Name:			ZINC27408102
#	Creating user name:	trannguyen
#	Creation time:		Wed Dec  7 14:36:20 2022


#	Modifying user name:	trannguyen
#	Modification time:	Wed Dec  7 14:36:20 2022

@<TRIPOS>MOLECULE
ZINC27408102
 34 36 0 0 0
SMALL
GASTEIGER

@<TRIPOS>ATOM
      1 N          13.0902  -27.0546   14.8681 N.am    1  UNL1       -0.2807
      2 C          13.2033  -25.7159   14.9771 C.2     1  UNL1        0.2707
      3 O          12.2116  -25.0188   14.9413 O.2     1  UNL1       -0.2707
      4 H          13.8839  -27.6263   14.9792 H       1  UNL1        0.1550
      5 C           9.3782  -28.7734   14.0582 C.ar    1  UNL1        0.0002
      6 C          10.1708  -28.3026   13.0237 C.ar    1  UNL1        0.0013
      7 C          11.3979  -27.7290   13.2893 C.ar    1  UNL1        0.0148
      8 C          11.8504  -27.6290   14.5982 C.ar    1  UNL1        0.0548
      9 C          11.0503  -28.1043   15.6477 C.ar    1  UNL1        0.0668
     10 C           9.8088  -28.6779   15.3637 C.ar    1  UNL1        0.0058
     11 C          11.5171  -27.9985   17.0431 C.2     1  UNL1        0.2473
     12 O          12.3909  -28.7398   17.4498 O.2     1  UNL1       -0.2701
     13 N          10.9750  -27.0801   17.8672 N.am    1  UNL1       -0.2936
     14 H          10.2676  -26.4799   17.5380 H       1  UNL1        0.1500
     15 C          11.4386  -26.9751   19.2529 C.3     1  UNL1        0.1941
     16 C          10.2336  -26.9822   20.1958 C.3     1  UNL1        0.4154
     17 F          10.6319  -27.4351   21.4582 F       1  UNL1       -0.1682
     18 F           9.7201  -25.6855   20.3062 F       1  UNL1       -0.1682
     19 F           9.2470  -27.8326   19.6853 F       1  UNL1       -0.1682
     20 C          14.5620  -25.0856   15.1434 C.3     1  UNL1        0.2897
     21 O          14.7224  -24.0393   14.1833 O.3     1  UNL1       -0.4655
     22 C          15.8522  -24.0626   13.4284 C.ar    1  UNL1        0.1423
     23 C          16.1879  -25.2053   12.7157 C.ar    1  UNL1        0.0371
     24 C          17.3358  -25.2294   11.9473 C.ar    1  UNL1        0.0062
     25 C          18.1503  -24.1147   11.8827 C.ar    1  UNL1        0.0378
     26 C          17.8218  -22.9717   12.5976 C.ar    1  UNL1        0.1502
     27 C          16.6699  -22.9450   13.3692 C.ar    1  UNL1        0.0744
     28 O          18.6253  -21.8774   12.5371 O.3     1  UNL1       -0.4360
     29 C          19.8428  -21.9475   13.1318 C.ar    1  UNL1        0.2297
     30 C          19.9278  -22.0625   14.5138 C.ar    1  UNL1        0.0581
     31 C          21.1755  -22.1340   15.1078 C.ar    1  UNL1        0.0064
     32 C          22.2998  -22.0862   14.2946 C.ar    1  UNL1        0.0209
     33 C          22.1406  -21.9702   12.9282 C.ar    1  UNL1        0.1021
     34 N          20.9374  -21.9052   12.3905 N.ar    1  UNL1       -0.2098
@<TRIPOS>BOND
     1     5    10   ar
     2     5     6   ar
     3     6     7   ar
     4     7     8   ar
     5     8     9   ar
     6     8     1    1
     7     9    10   ar
     8     9    11    1
     9    11    12    2
    10    11    13   am
    11    13    15    1
    12    15    16    1
    13    16    17    1
    14    16    18    1
    15    16    19    1
    16     1     2   am
    17     2     3    2
    18     2    20    1
    19    20    21    1
    20    21    22    1
    21    22    27   ar
    22    22    23   ar
    23    23    24   ar
    24    24    25   ar
    25    25    26   ar
    26    26    27   ar
    27    26    28    1
    28    28    29    1
    29    29    34   ar
    30    29    30   ar
    31    30    31   ar
    32    31    32   ar
    33    32    33   ar
    34    33    34   ar
    35    13    14    1
    36     1     4    1
#	Name:			ZINC27456078
#	Creating user name:	trannguyen
#	Creation time:		Wed Dec  7 14:36:19 2022


#	Modifying user name:	trannguyen
#	Modification time:	Wed Dec  7 14:36:19 2022

@<TRIPOS>MOLECULE
ZINC27456078
 38 40 0 0 0
SMALL
GASTEIGER

@<TRIPOS>ATOM
      1 C          19.2150  -24.9482   15.3371 C.2     1  UNL1        0.2708
      2 O          19.2473  -26.1603   15.3060 O.2     1  UNL1       -0.2707
      3 N          18.0350  -24.3030   15.2481 N.am    1  UNL1       -0.2809
      4 H          18.0013  -23.3235   15.3412 H       1  UNL1        0.1550
      5 C          16.8567  -25.0262   15.0233 C.ar    1  UNL1        0.0543
      6 C          16.2316  -25.6803   16.0770 C.ar    1  UNL1        0.0159
      7 C          15.0703  -26.3925   15.8555 C.ar    1  UNL1        0.0159
      8 C          14.5267  -26.4551   14.5789 C.ar    1  UNL1        0.0503
      9 C          15.1516  -25.8011   13.5255 C.ar    1  UNL1        0.0198
     10 C          16.3105  -25.0843   13.7481 C.ar    1  UNL1        0.0861
     11 C          16.9853  -24.3693   12.6060 C.3     1  UNL1        0.4198
     12 F          18.2028  -24.9954   12.3181 F       1  UNL1       -0.1658
     13 F          16.1606  -24.4116   11.4767 F       1  UNL1       -0.1658
     14 F          17.2192  -23.0369   12.9630 F       1  UNL1       -0.1658
     15 N          13.3479  -27.1774   14.3542 N.am    1  UNL1       -0.2839
     16 C          12.1508  -26.5751   14.4978 C.2     1  UNL1        0.2256
     17 O          12.0910  -25.4331   14.9019 O.2     1  UNL1       -0.2748
     18 H          13.3937  -28.1251   14.0914 H       1  UNL1        0.1549
     19 C          10.8863  -27.3207   14.1561 C.3     1  UNL1        0.0768
     20 C          10.8372  -28.8146   14.4822 C.3     1  UNL1        0.0096
     21 C          10.9573  -28.3523   13.0286 C.3     1  UNL1        0.0096
     22 C          20.4943  -24.1636   15.4750 C.3     1  UNL1        0.2930
     23 O          20.3900  -23.2633   16.6094 O.3     1  UNL1       -0.4353
     24 C          20.6232  -23.7865   17.8291 C.2     1  UNL1        0.3417
     25 O          21.7631  -23.8968   18.2351 O.2     1  UNL1       -0.2449
     26 C          17.3757  -25.0659   20.2463 C.ar    1  UNL1        0.0532
     27 C          18.5955  -25.7322   20.3133 C.ar    1  UNL1        0.0150
     28 C          19.6505  -25.3203   19.5311 C.ar    1  UNL1        0.0077
     29 C          19.4954  -24.2308   18.6686 C.ar    1  UNL1        0.0757
     30 C          18.2701  -23.5601   18.6083 C.ar    1  UNL1        0.0077
     31 C          17.2176  -23.9815   19.3888 C.ar    1  UNL1        0.0150
     32 C          15.4642  -26.4330   20.5872 C.2     1  UNL1        0.4054
     33 O          15.6866  -26.9908   19.5309 O.2     1  UNL1       -0.2261
     34 N          16.3093  -25.4859   21.0401 N.am    1  UNL1       -0.2499
     35 H          16.1736  -25.0907   21.9316 H       1  UNL1        0.1582
     36 O          14.3734  -26.7610   21.3051 O.3     1  UNL1       -0.4345
     37 C          12.2259  -27.9077   21.3672 C.3     1  UNL1        0.0513
     38 C          13.1400  -26.9755   20.5694 C.3     1  UNL1        0.2102
@<TRIPOS>BOND
     1    37    38    1
     2    38    36    1
     3    36    32    1
     4    32    33    2
     5    32    34   am
     6    34    26    1
     7    26    31   ar
     8    26    27   ar
     9    27    28   ar
    10    28    29   ar
    11    29    30   ar
    12    29    24    1
    13    30    31   ar
    14    24    25    2
    15    24    23    1
    16    23    22    1
    17    22     1    1
    18     1     2    2
    19     1     3   am
    20     3     5    1
    21     5    10   ar
    22     5     6   ar
    23     6     7   ar
    24     7     8   ar
    25     8     9   ar
    26     8    15    1
    27     9    10   ar
    28    10    11    1
    29    11    12    1
    30    11    13    1
    31    11    14    1
    32    15    16   am
    33    16    17    2
    34    16    19    1
    35    19    21    1
    36    19    20    1
    37    20    21    1
    38    34    35    1
    39     3     4    1
    40    15    18    1
#	Name:			ZINC27559169
#	Creating user name:	trannguyen
#	Creation time:		Wed Dec  7 14:36:20 2022


#	Modifying user name:	trannguyen
#	Modification time:	Wed Dec  7 14:36:20 2022

@<TRIPOS>MOLECULE
ZINC27559169
 36 38 0 0 0
SMALL
GASTEIGER

@<TRIPOS>ATOM
      1 N          12.4832  -25.6619   15.1342 N.am    1  UNL1       -0.2740
      2 C          13.8244  -25.7448   15.0299 C.2     1  UNL1        0.2825
      3 O          14.3598  -26.8294   14.9394 O.2     1  UNL1       -0.2684
      4 H          12.0486  -24.7816   15.2076 H       1  UNL1        0.1555
      5 C          11.3398  -27.5946   16.2245 C.ar    1  UNL1        0.0962
      6 C          10.5258  -28.7622   15.9402 C.ar    1  UNL1        0.0205
      7 C          10.2138  -28.9854   14.6361 C.ar    1  UNL1        0.0374
      8 S          10.9982  -27.6297   13.7893 S.2     1  UNL1       -0.0715
      9 C          11.7160  -26.8158   15.1379 C.ar    1  UNL1        0.0872
     10 C          10.0644  -29.6664   17.0139 C.ar    1  UNL1        0.0302
     11 C           8.9606  -29.5593   17.8175 C.ar    1  UNL1        0.0070
     12 C           8.7320  -30.5372   18.7623 C.ar    1  UNL1        0.0075
     13 C           9.6036  -31.5719   18.8671 C.ar    1  UNL1        0.0354
     14 S          10.8054  -31.1786   17.6071 S.2     1  UNL1       -0.0864
     15 C          11.7435  -27.2546   17.5882 C.2     1  UNL1        0.3430
     16 O          12.8690  -27.5124   17.9716 O.2     1  UNL1       -0.2448
     17 O          10.8681  -26.6551   18.4214 O.3     1  UNL1       -0.4454
     18 C           9.6506  -26.9119   20.4931 C.3     1  UNL1        0.0513
     19 C          11.0240  -26.9095   19.8189 C.3     1  UNL1        0.2089
     20 C          14.6588  -24.4900   15.0259 C.3     1  UNL1        0.1922
     21 N          16.0794  -24.8469   14.9134 N.4     1  UNL1        0.2920
     22 C          16.7744  -24.6520   16.1935 C.3     1  UNL1        0.1680
     23 C          18.2286  -25.1088   16.0562 C.3     1  UNL1        0.1680
     24 N          18.8807  -24.3436   14.9844 N.4     1  UNL1        0.2920
     25 C          18.1858  -24.5384   13.7042 C.3     1  UNL1        0.1680
     26 C          16.7314  -24.0816   13.8416 C.3     1  UNL1        0.1680
     27 H          16.1350  -25.8365   14.6724 H       1  UNL1        0.2078
     28 H          18.8249  -23.3541   15.2254 H       1  UNL1        0.2078
     29 C          20.3012  -24.7004   14.8719 C.3     1  UNL1        0.1919
     30 C          21.1483  -23.4898   15.1682 C.2     1  UNL1        0.2787
     31 O          22.3383  -23.6160   15.3657 O.2     1  UNL1       -0.2687
     32 N          20.5836  -22.2669   15.2136 N.am    1  UNL1       -0.2957
     33 H          19.6176  -22.1646   15.0532 H       1  UNL1        0.1499
     34 C          21.4071  -21.0900   15.5017 C.3     1  UNL1        0.1162
     35 C          20.6023  -20.0971   16.3001 C.2     1  UNL1       -0.0049
     36 C          19.9814  -20.4809   17.3879 C.2     1  UNL1       -0.0032
@<TRIPOS>UNITY_ATOM_ATTR
21 1
charge 1
24 1
charge 1
@<TRIPOS>BOND
     1    18    19    1
     2    19    17    1
     3    17    15    1
     4    15    16    2
     5    15     5    1
     6     5     9   ar
     7     5     6   ar
     8     6     7   ar
     9     6    10    1
    10     7     8   ar
    11     8     9   ar
    12     9     1    1
    13     1     2   am
    14     2     3    2
    15     2    20    1
    16    20    21    1
    17    21    26    1
    18    21    22    1
    19    22    23    1
    20    23    24    1
    21    24    25    1
    22    24    29    1
    23    25    26    1
    24    29    30    1
    25    30    31    2
    26    30    32   am
    27    32    34    1
    28    34    35    1
    29    35    36    2
    30    10    14   ar
    31    10    11   ar
    32    11    12   ar
    33    12    13   ar
    34    13    14   ar
    35     1     4    1
    36    21    27    1
    37    24    28    1
    38    32    33    1
#	Name:			ZINC27598814
#	Creating user name:	trannguyen
#	Creation time:		Wed Dec  7 14:36:19 2022


#	Modifying user name:	trannguyen
#	Modification time:	Wed Dec  7 14:36:19 2022

@<TRIPOS>MOLECULE
ZINC27598814
 39 41 0 0 0
SMALL
GASTEIGER

@<TRIPOS>ATOM
      1 N          22.9210  -21.0944   14.8424 N.am    1  UNL1       -0.2311
      2 C          22.6175  -21.6247   13.6411 C.2     1  UNL1        0.2614
      3 O          21.9729  -20.9793   12.8371 O.2     1  UNL1       -0.2686
      4 H          23.4430  -21.6169   15.4934 H       1  UNL1        0.1731
      5 C          23.0623  -22.9903   13.3040 C.ar    1  UNL1        0.0565
      6 C          24.2226  -23.1825   12.5479 C.ar    1  UNL1        0.0059
      7 C          24.6382  -24.4575   12.2404 C.ar    1  UNL1        0.0164
      8 C          23.8977  -25.5555   12.6707 C.ar    1  UNL1        0.0710
      9 C          22.7389  -25.3673   13.4188 C.ar    1  UNL1        0.1563
     10 C          22.3214  -24.0946   13.7348 C.ar    1  UNL1        0.0299
     11 N          21.9552  -26.5372   13.8751 N.pl3   1  UNL1        0.0589
     12 O          21.4389  -27.2800   13.0594 O.2     1  UNL1       -0.1261
     13 O          21.8267  -26.7570   15.0661 O.2     1  UNL1       -0.1261
     14 N          24.3171  -26.8431   12.3529 N.pl3   1  UNL1       -0.3112
     15 H          24.5809  -27.4656   13.0686 H       1  UNL1        0.1523
     16 C          24.3640  -27.2532   11.0180 C.ar    1  UNL1        0.0484
     17 C          25.1665  -26.5748   10.1092 C.ar    1  UNL1        0.0146
     18 C          25.2152  -26.9865    8.7919 C.ar    1  UNL1        0.0013
     19 C          24.4573  -28.0653    8.3745 C.ar    1  UNL1        0.0001
     20 C          23.6526  -28.7389    9.2751 C.ar    1  UNL1        0.0013
     21 C          23.6038  -28.3364   10.5953 C.ar    1  UNL1        0.0146
     22 N          22.4937  -19.7998   15.1648 N.am    1  UNL1       -0.2456
     23 H          22.9055  -19.0215   14.7244 H       1  UNL1        0.1718
     24 C          21.5189  -19.6196   16.0780 C.2     1  UNL1        0.1473
     25 S          20.5624  -18.2003   16.0402 S.2     1  UNL1       -0.0174
     26 N          21.2970  -20.5569   17.0207 N.am    1  UNL1       -0.3147
     27 H          22.0099  -20.7934   17.6571 H       1  UNL1        0.1485
     28 C          19.9949  -21.2238   17.0983 C.3     1  UNL1        0.0931
     29 C          20.1889  -22.7367   16.9781 C.3     1  UNL1        0.0477
     30 C          18.3921  -24.1151   13.3504 C.ar    1  UNL1        0.1724
     31 C          18.7205  -22.7773   13.4995 C.ar    1  UNL1        0.0397
     32 C          19.2960  -22.3337   14.6755 C.ar    1  UNL1       -0.0009
     33 C          19.5556  -23.2244   15.7005 C.ar    1  UNL1       -0.0173
     34 C          19.2306  -24.5606   15.5583 C.ar    1  UNL1        0.0358
     35 C          18.6483  -25.0107   14.3842 C.ar    1  UNL1        0.1721
     36 C          16.5116  -24.0660   11.8953 C.3     1  UNL1        0.2526
     37 O          17.8213  -24.5522   12.1961 O.3     1  UNL1       -0.4684
     38 O          18.3284  -26.3249   14.2424 O.3     1  UNL1       -0.4684
     39 C          17.3138  -26.8423   15.1056 C.3     1  UNL1        0.2526
@<TRIPOS>BOND
     1    36    37    1
     2    37    30    1
     3    30    35   ar
     4    30    31   ar
     5    31    32   ar
     6    32    33   ar
     7    33    34   ar
     8    33    29    1
     9    34    35   ar
    10    35    38    1
    11    38    39    1
    12    29    28    1
    13    28    26    1
    14    26    24    1
    15    24    25    2
    16    24    22    1
    17    22     1    1
    18     1     2   am
    19     2     3    2
    20     2     5    1
    21     5    10   ar
    22     5     6   ar
    23     6     7   ar
    24     7     8   ar
    25     8     9   ar
    26     8    14    1
    27     9    10   ar
    28     9    11    1
    29    11    12    2
    30    11    13    2
    31    14    16    1
    32    16    21   ar
    33    16    17   ar
    34    17    18   ar
    35    18    19   ar
    36    19    20   ar
    37    20    21   ar
    38    26    27    1
    39    22    23    1
    40     1     4    1
    41    14    15    1
#	Name:			ZINC27777129
#	Creating user name:	trannguyen
#	Creation time:		Wed Dec  7 14:36:19 2022


#	Modifying user name:	trannguyen
#	Modification time:	Wed Dec  7 14:36:19 2022

@<TRIPOS>MOLECULE
ZINC27777129
 26 28 0 0 0
SMALL
GASTEIGER

@<TRIPOS>ATOM
      1 C          18.6165  -25.5777   15.9081 C.3     1  UNL1        0.1305
      2 C          19.7756  -26.5764   15.9047 C.3     1  UNL1        0.0218
      3 C          19.1308  -24.2125   16.2855 C.2     1  UNL1        0.2394
      4 O          19.2604  -23.9149   17.4543 O.2     1  UNL1       -0.2736
      5 N          19.4416  -23.3200   15.3246 N.am    1  UNL1       -0.2566
      6 C          19.2480  -23.7036   13.9296 C.3     1  UNL1        0.1102
      7 C          20.5678  -23.4930   13.1717 C.3     1  UNL1        0.0841
      8 S          20.9209  -21.7095   13.1667 S.3     1  UNL1       -0.1106
      9 C          20.6285  -21.2343   14.8408 C.ar    1  UNL1        0.0389
     10 C          19.9287  -22.0688   15.7100 C.ar    1  UNL1        0.0595
     11 C          19.7061  -21.6536   17.0204 C.ar    1  UNL1        0.0154
     12 C          20.1728  -20.4293   17.4550 C.ar    1  UNL1        0.0013
     13 C          20.8671  -19.6026   16.5912 C.ar    1  UNL1        0.0006
     14 C          21.1020  -20.0065   15.2865 C.ar    1  UNL1        0.0074
     15 S          17.3661  -26.1067   17.1112 S.3     1  UNL1       -0.0782
     16 C          13.3627  -25.7546   15.2338 C.ar    1  UNL1        0.1829
     17 N          14.2289  -24.8067   14.9342 N.ar    1  UNL1       -0.1252
     18 N          15.4922  -24.8365   15.4782 N.ar    1  UNL1       -0.1331
     19 C          15.8347  -25.8199   16.2883 C.ar    1  UNL1        0.1610
     20 S          14.3282  -26.7786   16.3337 S.2     1  UNL1       -0.0245
     21 N          12.0494  -25.9143   14.8076 N.pl3   1  UNL1       -0.3116
     22 H          11.5207  -25.1292   14.5370 H       1  UNL1        0.1487
     23 C          11.4519  -27.2512   14.7611 C.3     1  UNL1        0.0886
     24 C          12.2206  -28.6205   12.8178 C.3     1  UNL1        0.0017
     25 C          11.1622  -27.6301   13.3074 C.3     1  UNL1        0.0196
     26 C           9.7782  -28.2756   13.2147 C.3     1  UNL1        0.0017
@<TRIPOS>BOND
     1    24    25    1
     2    25    26    1
     3    25    23    1
     4    23    21    1
     5    21    16    1
     6    16    20   ar
     7    16    17   ar
     8    17    18   ar
     9    18    19   ar
    10    19    20   ar
    11    19    15    1
    12    15     1    1
    13     1     2    1
    14     1     3    1
    15     3     4    2
    16     3     5   am
    17     5    10    1
    18     5     6    1
    19     6     7    1
    20     7     8    1
    21     8     9    1
    22     9    14   ar
    23     9    10   ar
    24    10    11   ar
    25    11    12   ar
    26    12    13   ar
    27    13    14   ar
    28    21    22    1
#	Name:			ZINC27812518
#	Creating user name:	trannguyen
#	Creation time:		Wed Dec  7 14:36:20 2022


#	Modifying user name:	trannguyen
#	Modification time:	Wed Dec  7 14:36:20 2022

@<TRIPOS>MOLECULE
ZINC27812518
 30 32 0 0 0
SMALL
GASTEIGER

@<TRIPOS>ATOM
      1 C          16.2668  -25.0942   13.9470 C.ar    1  UNL1        0.2095
      2 N          15.4349  -24.1386   13.6031 N.ar    1  UNL1       -0.1207
      3 N          16.0913  -23.1300   13.1516 N.ar    1  UNL1       -0.1274
      4 C          17.3694  -23.3823   13.1723 C.ar    1  UNL1        0.2042
      5 N          17.5273  -24.6424   13.6797 N.ar    1  UNL1       -0.2242
      6 N          18.7022  -25.3105   13.8780 N.pl3   1  UNL1       -0.2947
      7 H          18.6937  -26.2209   14.2526 H       1  UNL1        0.1627
      8 H          19.5576  -24.8816   13.6462 H       1  UNL1        0.1627
      9 S          15.8375  -26.6653   14.6193 S.3     1  UNL1       -0.0655
     10 C          14.5461  -26.1660   15.7851 C.3     1  UNL1        0.1337
     11 C          14.5922  -27.0729   17.0164 C.3     1  UNL1        0.0221
     12 C          11.4915  -26.9926   14.0895 C.ar    1  UNL1        0.1805
     13 N          12.7132  -27.3482   14.5252 N.ar    1  UNL1       -0.1942
     14 C          13.1978  -26.2863   15.1228 C.ar    1  UNL1        0.2464
     15 O          12.2674  -25.3312   15.0325 O.2     1  UNL1       -0.3365
     16 N          11.3011  -25.7540   14.4332 N.ar    1  UNL1       -0.0606
     17 C          10.5238  -27.8678   13.3355 C.3     1  UNL1        0.0692
     18 C          11.1182  -29.2690   13.1796 C.3     1  UNL1        0.0081
     19 C          11.4466  -31.4016   14.4391 C.3     1  UNL1        0.0000
     20 C          10.5259  -30.1953   14.2436 C.3     1  UNL1        0.0005
     21 C          18.4698  -22.4570   12.7208 C.3     1  UNL1        0.2719
     22 O          19.6346  -22.6770   13.5189 O.3     1  UNL1       -0.4675
     23 C          20.2097  -21.5839   14.0857 C.ar    1  UNL1        0.1352
     24 C          20.6200  -20.5235   13.2904 C.ar    1  UNL1        0.0363
     25 C          21.2043  -19.4136   13.8688 C.ar    1  UNL1       -0.0012
     26 C          21.3801  -19.3586   15.2394 C.ar    1  UNL1       -0.0220
     27 C          20.9718  -20.4136   16.0340 C.ar    1  UNL1       -0.0055
     28 C          20.3824  -21.5239   15.4607 C.ar    1  UNL1        0.0118
     29 C          19.9322  -22.6712   16.3281 C.3     1  UNL1        0.0342
     30 C          22.0175  -18.1462   15.8679 C.3     1  UNL1        0.0310
@<TRIPOS>BOND
     1    19    20    1
     2    20    18    1
     3    18    17    1
     4    17    12    1
     5    12    16   ar
     6    12    13   ar
     7    13    14   ar
     8    14    15   ar
     9    14    10    1
    10    15    16   ar
    11    10    11    1
    12    10     9    1
    13     9     1    1
    14     1     5   ar
    15     1     2   ar
    16     2     3   ar
    17     3     4   ar
    18     4     5   ar
    19     4    21    1
    20     5     6    1
    21    21    22    1
    22    22    23    1
    23    23    28   ar
    24    23    24   ar
    25    24    25   ar
    26    25    26   ar
    27    26    27   ar
    28    26    30    1
    29    27    28   ar
    30    28    29    1
    31     6     7    1
    32     6     8    1
#	Name:			ZINC27815228
#	Creating user name:	trannguyen
#	Creation time:		Wed Dec  7 14:36:20 2022


#	Modifying user name:	trannguyen
#	Modification time:	Wed Dec  7 14:36:20 2022

@<TRIPOS>MOLECULE
ZINC27815228
 37 40 0 0 0
SMALL
GASTEIGER

@<TRIPOS>ATOM
      1 C          23.1352  -25.8283   12.9594 C.2     1  UNL1        0.2456
      2 O          23.7963  -25.4299   13.8984 O.2     1  UNL1       -0.2702
      3 N          21.8079  -25.5969   12.9235 N.am    1  UNL1       -0.3002
      4 H          21.2723  -25.9195   12.1630 H       1  UNL1        0.1498
      5 C          25.1711  -24.5234   11.3709 C.3     1  UNL1        0.0312
      6 C          24.7700  -25.9474   11.0837 C.ar    1  UNL1       -0.0174
      7 C          25.3775  -26.6435   10.0588 C.ar    1  UNL1       -0.0027
      8 C          25.0066  -27.9490    9.7904 C.ar    1  UNL1        0.0196
      9 C          24.0291  -28.5672   10.5501 C.ar    1  UNL1        0.1221
     10 C          23.4175  -27.8841   11.5807 C.ar    1  UNL1        0.0241
     11 C          23.7869  -26.5666   11.8568 C.ar    1  UNL1        0.0507
     12 S          23.5642  -30.2302   10.1999 S.O2    1  UNL1        0.0603
     13 O          22.5991  -30.5964   11.1765 O.2     1  UNL1       -0.1530
     14 O          23.2984  -30.2926    8.8054 O.2     1  UNL1       -0.1530
     15 N          24.8949  -31.1780   10.4709 N.3     1  UNL1       -0.1768
     16 H          25.4785  -30.6808   11.1438 H       1  UNL1        0.1489
     17 C          24.7313  -32.5420   10.9797 C.3     1  UNL1        0.1234
     18 C          24.7996  -33.5323    9.8153 C.3     1  UNL1        0.1610
     19 O          26.1383  -34.0124    9.6762 O.3     1  UNL1       -0.3496
     20 C          26.7579  -34.3731   10.9123 C.3     1  UNL1        0.1742
     21 C          21.1620  -24.8654   14.0162 C.3     1  UNL1        0.0989
     22 C          20.7270  -23.4853   13.5191 C.3     1  UNL1        0.0717
     23 C          20.8830  -22.4791   14.6299 C.ar    1  UNL1        0.0021
     24 C          20.8126  -22.7269   15.9474 C.ar    1  UNL1        0.0684
     25 N          21.0073  -21.5693   16.6508 N.ar    1  UNL1       -0.3522
     26 C          21.2031  -20.5203   15.7810 C.ar    1  UNL1        0.0563
     27 C          21.1338  -21.0440   14.4768 C.ar    1  UNL1        0.0134
     28 C          21.2975  -20.1994   13.3775 C.ar    1  UNL1        0.0012
     29 C          21.5246  -18.8662   13.5740 C.ar    1  UNL1        0.0001
     30 C          21.5933  -18.3447   14.8583 C.ar    1  UNL1        0.0015
     31 C          21.4346  -19.1602   15.9575 C.ar    1  UNL1        0.0170
     32 H          21.0074  -21.4974   17.6327 H       1  UNL1        0.1660
     33 C          19.2838  -23.5385   13.0884 C.ar    1  UNL1        0.0127
     34 C          18.2569  -22.7278   13.4426 C.ar    1  UNL1        0.0031
     35 C          17.0013  -22.9679   12.9169 C.ar    1  UNL1        0.0072
     36 C          16.8340  -24.0069   12.0627 C.ar    1  UNL1        0.0351
     37 S          18.4817  -24.6896   11.9844 S.2     1  UNL1       -0.0904
@<TRIPOS>BOND
     1     5     6    1
     2     6    11   ar
     3     6     7   ar
     4     7     8   ar
     5     8     9   ar
     6     9    10   ar
     7     9    12    1
     8    10    11   ar
     9    11     1    1
    10     1     2    2
    11     1     3   am
    12     3    21    1
    13    21    22    1
    14    22    33    1
    15    22    23    1
    16    33    37   ar
    17    33    34   ar
    18    34    35   ar
    19    35    36   ar
    20    36    37   ar
    21    23    27   ar
    22    23    24   ar
    23    24    25   ar
    24    25    26   ar
    25    26    31   ar
    26    26    27   ar
    27    27    28   ar
    28    28    29   ar
    29    29    30   ar
    30    30    31   ar
    31    12    13    2
    32    12    14    2
    33    12    15    1
    34    15    17    1
    35    17    18    1
    36    18    19    1
    37    19    20    1
    38     3     4    1
    39    25    32    1
    40    15    16    1
#	Name:			ZINC27855218
#	Creating user name:	trannguyen
#	Creation time:		Wed Dec  7 14:36:20 2022


#	Modifying user name:	trannguyen
#	Modification time:	Wed Dec  7 14:36:20 2022

@<TRIPOS>MOLECULE
ZINC27855218
 36 38 0 0 0
SMALL
GASTEIGER

@<TRIPOS>ATOM
      1 C          14.6882  -25.9964   15.1880 C.2     1  UNL1        0.2371
      2 O          15.2055  -27.0821   15.3455 O.2     1  UNL1       -0.2738
      3 N          13.4271  -25.9125   14.7199 N.am    1  UNL1       -0.2832
      4 H          12.9830  -25.0361   14.6562 H       1  UNL1        0.1549
      5 C          12.7482  -27.0721   14.3240 C.ar    1  UNL1        0.0504
      6 C          11.7275  -27.5833   15.1147 C.ar    1  UNL1        0.0159
      7 C          11.0588  -28.7264   14.7249 C.ar    1  UNL1        0.0160
      8 C          11.4071  -29.3652   13.5422 C.ar    1  UNL1        0.0516
      9 C          12.4313  -28.8570   12.7541 C.ar    1  UNL1        0.0160
     10 C          13.0961  -27.7108   13.1410 C.ar    1  UNL1        0.0159
     11 N          10.7290  -30.5259   13.1469 N.am    1  UNL1       -0.2683
     12 C          11.2611  -31.7374   13.4027 C.2     1  UNL1        0.3045
     13 O          12.3673  -31.8228   13.9003 O.2     1  UNL1       -0.2525
     14 N          10.5673  -32.8543   13.1068 N.am    1  UNL1       -0.2862
     15 H           9.8638  -30.4564   12.6823 H       1  UNL1        0.1564
     16 H           9.6716  -32.7852   12.7039 H       1  UNL1        0.1511
     17 C          11.1458  -34.1712   13.3848 C.3     1  UNL1        0.1203
     18 C          10.3498  -35.2453   12.6407 C.3     1  UNL1        0.1348
     19 C           8.9023  -35.3095   13.1762 C.3     1  UNL1        0.0339
     20 C           8.0486  -35.5861   11.9183 C.3     1  UNL1        0.0346
     21 C           9.0814  -35.6563   10.7717 C.3     1  UNL1        0.1422
     22 O          10.2130  -34.8932   11.2440 O.3     1  UNL1       -0.3545
     23 C          15.4555  -24.7415   15.5156 C.3     1  UNL1        0.1430
     24 S          17.1526  -25.1760   15.9865 S.3     1  UNL1       -0.1258
     25 C          18.1534  -24.6274   14.5765 C.3     1  UNL1        0.0840
     26 C          18.6865  -22.3534   12.8818 C.3     1  UNL1        0.0308
     27 C          19.3735  -22.4729   14.2179 C.ar    1  UNL1       -0.0218
     28 C          20.2537  -21.4898   14.6314 C.ar    1  UNL1        0.0355
     29 C          20.8903  -21.6010   15.8567 C.ar    1  UNL1        0.1721
     30 C          20.6375  -22.7007   16.6716 C.ar    1  UNL1        0.1721
     31 C          19.7503  -23.6792   16.2538 C.ar    1  UNL1        0.0363
     32 C          19.1182  -23.5621   15.0295 C.ar    1  UNL1       -0.0120
     33 O          21.2596  -22.8141   17.8756 O.3     1  UNL1       -0.4684
     34 C          21.1117  -24.0554   18.5679 C.3     1  UNL1        0.2526
     35 O          21.7600  -20.6376   16.2626 O.3     1  UNL1       -0.4684
     36 C          21.7142  -19.3884   15.5700 C.3     1  UNL1        0.2526
@<TRIPOS>BOND
     1    26    27    1
     2    27    32   ar
     3    27    28   ar
     4    28    29   ar
     5    29    30   ar
     6    29    35    1
     7    30    31   ar
     8    30    33    1
     9    31    32   ar
    10    32    25    1
    11    25    24    1
    12    24    23    1
    13    23     1    1
    14     1     2    2
    15     1     3   am
    16     3     5    1
    17     5    10   ar
    18     5     6   ar
    19     6     7   ar
    20     7     8   ar
    21     8     9   ar
    22     8    11    1
    23     9    10   ar
    24    11    12   am
    25    12    13    2
    26    12    14   am
    27    14    17    1
    28    17    18    1
    29    18    22    1
    30    18    19    1
    31    19    20    1
    32    20    21    1
    33    21    22    1
    34    33    34    1
    35    35    36    1
    36     3     4    1
    37    11    15    1
    38    14    16    1
#	Name:			ZINC28113050
#	Creating user name:	trannguyen
#	Creation time:		Wed Dec  7 14:36:19 2022


#	Modifying user name:	trannguyen
#	Modification time:	Wed Dec  7 14:36:19 2022

@<TRIPOS>MOLECULE
ZINC28113050
 37 39 0 0 0
SMALL
GASTEIGER

@<TRIPOS>ATOM
      1 C          21.1596  -27.9306   18.7341 C.3     1  UNL1        0.1299
      2 C          22.6028  -28.1300   18.2665 C.3     1  UNL1        0.0218
      3 C          20.9522  -26.4895   19.1228 C.2     1  UNL1        0.2329
      4 O          20.1252  -26.2006   19.9616 O.2     1  UNL1       -0.2742
      5 N          21.6857  -25.5216   18.5384 N.am    1  UNL1       -0.2959
      6 H          22.3572  -25.7560   17.8575 H       1  UNL1        0.1499
      7 C          21.4841  -24.1206   18.9163 C.3     1  UNL1        0.1760
      8 C          20.8745  -23.3711   17.7596 C.2     1  UNL1        0.2463
      9 O          20.0467  -22.5086   17.9645 O.2     1  UNL1       -0.2729
     10 N          21.2493  -23.6593   16.4975 N.am    1  UNL1       -0.2802
     11 H          21.9777  -24.3013   16.3347 H       1  UNL1        0.1550
     12 C          20.6022  -23.0451   15.4169 C.ar    1  UNL1        0.0845
     13 C          21.1089  -21.8710   14.8790 C.ar    1  UNL1        0.0135
     14 C          20.4722  -21.2702   13.8097 C.ar    1  UNL1       -0.0204
     15 C          19.3239  -21.8302   13.2808 C.ar    1  UNL1       -0.0011
     16 C          18.8100  -22.9971   13.8152 C.ar    1  UNL1        0.0379
     17 C          19.4454  -23.6087   14.8836 C.ar    1  UNL1        0.1520
     18 C          21.0269  -19.9978   13.2229 C.3     1  UNL1        0.0311
     19 O          18.9415  -24.7567   15.4100 O.3     1  UNL1       -0.4702
     20 C          17.6765  -24.6676   16.0689 C.3     1  UNL1        0.2525
     21 S          20.0227  -28.3637   17.3887 S.3     1  UNL1       -0.0782
     22 C          21.6972  -26.8965   13.5522 C.ar    1  UNL1        0.1865
     23 N          22.0275  -26.2105   14.6289 N.ar    1  UNL1       -0.1249
     24 N          21.5465  -26.5940   15.8594 N.ar    1  UNL1       -0.1331
     25 C          20.7652  -27.6528   15.9576 C.ar    1  UNL1        0.1610
     26 S          20.6621  -28.1730   14.2519 S.2     1  UNL1       -0.0242
     27 N          22.0621  -26.6859   12.2271 N.pl3   1  UNL1       -0.2918
     28 H          21.4726  -26.1710   11.6299 H       1  UNL1        0.1541
     29 C          23.2911  -28.4558   11.1387 C.ar    1  UNL1       -0.0090
     30 C          24.4835  -28.9683   10.6664 C.ar    1  UNL1       -0.0031
     31 C          25.6506  -28.2381   10.7939 C.ar    1  UNL1       -0.0006
     32 C          25.6289  -26.9927   11.3953 C.ar    1  UNL1       -0.0031
     33 C          24.4405  -26.4742   11.8698 C.ar    1  UNL1       -0.0087
     34 C          23.2656  -27.2052   11.7429 C.ar    1  UNL1        0.0417
     35 C          24.4175  -25.1169   12.5241 C.3     1  UNL1        0.0323
     36 C          22.3589  -30.6872   10.5905 C.3     1  UNL1        0.0051
     37 C          22.0195  -29.2524   10.9994 C.3     1  UNL1        0.0276
@<TRIPOS>BOND
     1    36    37    1
     2    37    29    1
     3    29    34   ar
     4    29    30   ar
     5    30    31   ar
     6    31    32   ar
     7    32    33   ar
     8    33    34   ar
     9    33    35    1
    10    34    27    1
    11    27    22    1
    12    22    26   ar
    13    22    23   ar
    14    23    24   ar
    15    24    25   ar
    16    25    26   ar
    17    25    21    1
    18    21     1    1
    19     1     2    1
    20     1     3    1
    21     3     4    2
    22     3     5   am
    23     5     7    1
    24     7     8    1
    25     8     9    2
    26     8    10   am
    27    10    12    1
    28    12    17   ar
    29    12    13   ar
    30    13    14   ar
    31    14    15   ar
    32    14    18    1
    33    15    16   ar
    34    16    17   ar
    35    17    19    1
    36    19    20    1
    37    27    28    1
    38     5     6    1
    39    10    11    1
#	Name:			ZINC28129680
#	Creating user name:	trannguyen
#	Creation time:		Wed Dec  7 14:36:19 2022


#	Modifying user name:	trannguyen
#	Modification time:	Wed Dec  7 14:36:19 2022

@<TRIPOS>MOLECULE
ZINC28129680
 39 42 0 0 0
SMALL
GASTEIGER

@<TRIPOS>ATOM
      1 C          18.7045  -23.7687   12.4809 C.3     1  UNL1        0.2737
      2 C          21.8007  -22.8783   14.2621 C.ar    1  UNL1        0.2243
      3 N          20.6583  -22.7853   13.5848 N.ar    1  UNL1       -0.1947
      4 C          19.9975  -23.8786   13.2471 C.ar    1  UNL1        0.1889
      5 N          20.4648  -25.0681   13.5843 N.ar    1  UNL1       -0.1951
      6 C          21.6088  -25.1695   14.2569 C.ar    1  UNL1        0.2173
      7 N          22.2761  -24.0724   14.5984 N.ar    1  UNL1       -0.1810
      8 N          22.0985  -26.4121   14.6040 N.pl3   1  UNL1       -0.3273
      9 H          21.6035  -27.2246   14.3506 H       1  UNL1        0.1452
     10 H          22.9428  -26.4862   15.1049 H       1  UNL1        0.1452
     11 N          22.4907  -21.7352   14.6142 N.pl3   1  UNL1       -0.2801
     12 H          23.4739  -21.7189   14.5656 H       1  UNL1        0.1552
     13 C          21.1735  -20.5865   16.2891 C.ar    1  UNL1        0.1520
     14 C          20.4839  -19.4596   16.7058 C.ar    1  UNL1        0.0382
     15 C          20.4106  -18.3503   15.8838 C.ar    1  UNL1        0.0032
     16 C          21.0238  -18.3616   14.6445 C.ar    1  UNL1        0.0015
     17 C          21.7177  -19.4802   14.2233 C.ar    1  UNL1        0.0178
     18 C          21.7916  -20.5987   15.0407 C.ar    1  UNL1        0.0849
     19 C          20.0173  -22.1794   17.6238 C.3     1  UNL1        0.2525
     20 O          21.2473  -21.6780   17.0968 O.3     1  UNL1       -0.4702
     21 O          17.7193  -23.0750   13.2912 O.3     1  UNL1       -0.4370
     22 C          16.4922  -23.6264   13.3674 C.2     1  UNL1        0.3417
     23 O          15.6467  -23.3436   12.5420 O.2     1  UNL1       -0.2449
     24 C          16.1755  -24.5734   14.4528 C.ar    1  UNL1        0.0789
     25 C          17.0502  -24.7182   15.5333 C.ar    1  UNL1        0.0098
     26 C          16.7527  -25.6032   16.5464 C.ar    1  UNL1        0.0403
     27 C          15.5849  -26.3528   16.4972 C.ar    1  UNL1        0.1724
     28 C          14.7080  -26.2133   15.4224 C.ar    1  UNL1        0.1730
     29 C          15.0027  -25.3321   14.4006 C.ar    1  UNL1        0.0465
     30 O          15.2967  -27.2240   17.4981 O.3     1  UNL1       -0.4684
     31 C          15.9070  -28.5144   17.4309 C.3     1  UNL1        0.2526
     32 O          13.5650  -26.9490   15.3775 O.3     1  UNL1       -0.4659
     33 C          12.3567  -26.2522   15.0670 C.3     1  UNL1        0.2510
     34 C          11.2812  -27.2458   14.7104 C.ar    1  UNL1        0.1027
     35 C          10.8042  -28.1121   15.6761 C.ar    1  UNL1        0.0185
     36 C           9.8145  -29.0220   15.3377 C.ar    1  UNL1        0.0029
     37 C           9.3396  -29.0266   14.0349 C.ar    1  UNL1        0.0207
     38 C           9.8689  -28.1344   13.1221 C.ar    1  UNL1        0.0986
     39 N          10.8061  -27.2786   13.4809 N.ar    1  UNL1       -0.2445
@<TRIPOS>BOND
     1    19    20    1
     2    20    13    1
     3    13    18   ar
     4    13    14   ar
     5    14    15   ar
     6    15    16   ar
     7    16    17   ar
     8    17    18   ar
     9    18    11    1
    10    11     2    1
    11     2     7   ar
    12     2     3   ar
    13     3     4   ar
    14     4     5   ar
    15     4     1    1
    16     5     6   ar
    17     6     7   ar
    18     6     8    1
    19     1    21    1
    20    21    22    1
    21    22    23    2
    22    22    24    1
    23    24    29   ar
    24    24    25   ar
    25    25    26   ar
    26    26    27   ar
    27    27    28   ar
    28    27    30    1
    29    28    29   ar
    30    28    32    1
    31    32    33    1
    32    33    34    1
    33    34    39   ar
    34    34    35   ar
    35    35    36   ar
    36    36    37   ar
    37    37    38   ar
    38    38    39   ar
    39    30    31    1
    40    11    12    1
    41     8     9    1
    42     8    10    1
#	Name:			ZINC28139040
#	Creating user name:	trannguyen
#	Creation time:		Wed Dec  7 14:36:20 2022


#	Modifying user name:	trannguyen
#	Modification time:	Wed Dec  7 14:36:20 2022

@<TRIPOS>MOLECULE
ZINC28139040
 40 42 0 0 0
SMALL
GASTEIGER

@<TRIPOS>ATOM
      1 C          19.2395  -25.0548   15.0204 C.ar    1  UNL1        0.1617
      2 N          18.5338  -24.9173   16.1072 N.ar    1  UNL1       -0.1311
      3 N          17.2921  -24.7684   15.8111 N.ar    1  UNL1       -0.1224
      4 C          17.1360  -24.8115   14.5082 C.ar    1  UNL1        0.1937
      5 N          18.3746  -24.9924   13.9628 N.ar    1  UNL1       -0.2883
      6 C          20.7322  -25.2469   14.9432 C.3     1  UNL1        0.1287
      7 C          21.0853  -26.6735   15.3688 C.3     1  UNL1        0.0295
      8 N          21.3942  -24.2929   15.8364 N.pl3   1  UNL1       -0.3282
      9 H          21.8865  -24.6170   16.6250 H       1  UNL1        0.1471
     10 C          21.1947  -20.2109   15.0401 C.ar    1  UNL1       -0.0224
     11 C          20.6910  -20.7073   16.2284 C.ar    1  UNL1       -0.0030
     12 C          20.7553  -22.0608   16.4956 C.ar    1  UNL1        0.0140
     13 C          21.3270  -22.9236   15.5691 C.ar    1  UNL1        0.0449
     14 C          21.8367  -22.4209   14.3787 C.ar    1  UNL1        0.0140
     15 C          21.7644  -21.0671   14.1156 C.ar    1  UNL1       -0.0030
     16 C          21.9608  -17.9715   15.7799 C.3     1  UNL1        0.0047
     17 C          21.1222  -18.7336   14.7518 C.3     1  UNL1        0.0224
     18 C          21.6654  -18.4607   13.3477 C.3     1  UNL1        0.0047
     19 C          18.7079  -25.0977   12.5402 C.3     1  UNL1        0.1357
     20 C          18.7745  -23.7186   11.9364 C.2     1  UNL1       -0.0017
     21 C          18.0343  -23.4221   10.8970 C.2     1  UNL1       -0.0029
     22 S          15.6166  -24.6575   13.6294 S.3     1  UNL1       -0.0658
     23 C          14.4429  -24.8849   14.9884 C.3     1  UNL1        0.1501
     24 C          13.6916  -26.1765   14.7924 C.2     1  UNL1        0.2376
     25 O          14.2918  -27.2303   14.7729 O.2     1  UNL1       -0.2738
     26 N          12.3527  -26.1605   14.6390 N.am    1  UNL1       -0.2832
     27 H          11.8747  -25.3021   14.5753 H       1  UNL1        0.1549
     28 C          11.6411  -27.3653   14.5702 C.ar    1  UNL1        0.0518
     29 C          11.2881  -27.8935   13.3353 C.ar    1  UNL1        0.0179
     30 C          10.5817  -29.0790   13.2647 C.ar    1  UNL1        0.0395
     31 C          10.2327  -29.7497   14.4257 C.ar    1  UNL1        0.1521
     32 C          10.5897  -29.2259   15.6661 C.ar    1  UNL1        0.0860
     33 C          11.2939  -28.0334   15.7360 C.ar    1  UNL1        0.0324
     34 N          10.2372  -29.9026   16.8413 N.am    1  UNL1       -0.2815
     35 C           9.0380  -29.6783   17.4141 C.2     1  UNL1        0.2267
     36 O           8.2945  -28.8371   16.9552 O.2     1  UNL1       -0.2748
     37 C           8.6211  -30.4727   18.6250 C.3     1  UNL1        0.0949
     38 H          10.8655  -30.5418   17.2486 H       1  UNL1        0.1549
     39 O           9.5423  -30.9197   14.3543 O.3     1  UNL1       -0.4702
     40 C          10.3055  -32.1129   14.1650 C.3     1  UNL1        0.2525
@<TRIPOS>BOND
     1    16    17    1
     2    17    18    1
     3    17    10    1
     4    10    15   ar
     5    10    11   ar
     6    11    12   ar
     7    12    13   ar
     8    13    14   ar
     9    13     8    1
    10    14    15   ar
    11     8     6    1
    12     6     7    1
    13     6     1    1
    14     1     5   ar
    15     1     2   ar
    16     2     3   ar
    17     3     4   ar
    18     4     5   ar
    19     4    22    1
    20     5    19    1
    21    19    20    1
    22    20    21    2
    23    22    23    1
    24    23    24    1
    25    24    25    2
    26    24    26   am
    27    26    28    1
    28    28    33   ar
    29    28    29   ar
    30    29    30   ar
    31    30    31   ar
    32    31    32   ar
    33    31    39    1
    34    32    33   ar
    35    32    34    1
    36    34    35   am
    37    35    36    2
    38    35    37    1
    39    39    40    1
    40     8     9    1
    41    26    27    1
    42    34    38    1
#	Name:			ZINC28143197
#	Creating user name:	trannguyen
#	Creation time:		Wed Dec  7 14:36:20 2022


#	Modifying user name:	trannguyen
#	Modification time:	Wed Dec  7 14:36:20 2022

@<TRIPOS>MOLECULE
ZINC28143197
 34 36 0 0 0
SMALL
GASTEIGER

@<TRIPOS>ATOM
      1 C          17.5760  -26.5588   15.7497 C.ar    1  UNL1        0.1617
      2 N          18.4699  -27.0403   14.9332 N.ar    1  UNL1       -0.1311
      3 N          18.3191  -26.5301   13.7632 N.ar    1  UNL1       -0.1224
      4 C          17.3119  -25.6880   13.7703 C.ar    1  UNL1        0.1936
      5 N          16.8099  -25.6758   15.0399 N.ar    1  UNL1       -0.2883
      6 C          17.4192  -26.9059   17.2078 C.3     1  UNL1        0.1287
      7 C          16.9418  -28.3535   17.3391 C.3     1  UNL1        0.0295
      8 N          18.7081  -26.7531   17.8874 N.pl3   1  UNL1       -0.3282
      9 H          19.1935  -27.5479   18.2067 H       1  UNL1        0.1471
     10 C          20.9010  -21.5839   18.6801 C.3     1  UNL1        0.0310
     11 C          20.3183  -22.9575   18.4689 C.ar    1  UNL1       -0.0218
     12 C          18.9538  -23.1102   18.3039 C.ar    1  UNL1       -0.0030
     13 C          18.4165  -24.3677   18.1106 C.ar    1  UNL1        0.0140
     14 C          19.2483  -25.4799   18.0821 C.ar    1  UNL1        0.0449
     15 C          20.6178  -25.3234   18.2534 C.ar    1  UNL1        0.0140
     16 C          21.1492  -24.0626   18.4410 C.ar    1  UNL1       -0.0030
     17 C          15.6824  -24.8838   15.5377 C.3     1  UNL1        0.1357
     18 C          14.3890  -25.5603   15.1629 C.2     1  UNL1       -0.0017
     19 C          13.9367  -26.5551   15.8854 C.2     1  UNL1       -0.0029
     20 S          16.7239  -24.7464   12.4020 S.3     1  UNL1       -0.0672
     21 C          18.2962  -24.1530   11.7300 C.3     1  UNL1        0.1312
     22 C          18.0712  -23.5938   10.3237 C.3     1  UNL1        0.0218
     23 C          18.8453  -23.0678   12.6200 C.2     1  UNL1        0.2362
     24 O          18.0952  -22.4179   13.3171 O.2     1  UNL1       -0.2739
     25 N          20.1698  -22.8196   12.6415 N.am    1  UNL1       -0.2832
     26 H          20.7870  -23.3966   12.1361 H       1  UNL1        0.1549
     27 C          20.6664  -21.7449   13.3800 C.ar    1  UNL1        0.0504
     28 C          20.8142  -20.4992   12.7788 C.ar    1  UNL1        0.0154
     29 C          21.2986  -19.4350   13.5061 C.ar    1  UNL1        0.0115
     30 C          21.6524  -19.6102   14.8468 C.ar    1  UNL1        0.0685
     31 C          21.5080  -20.8647   15.4460 C.ar    1  UNL1        0.0115
     32 C          21.0179  -21.9231   14.7140 C.ar    1  UNL1        0.0154
     33 C          22.1612  -18.5071   15.6049 C.1     1  UNL1        0.1004
     34 N          22.5648  -17.6319   16.2064 N.1     1  UNL1       -0.1908
@<TRIPOS>BOND
     1    10    11    1
     2    11    16   ar
     3    11    12   ar
     4    12    13   ar
     5    13    14   ar
     6    14    15   ar
     7    14     8    1
     8    15    16   ar
     9     8     6    1
    10     6     7    1
    11     6     1    1
    12     1     5   ar
    13     1     2   ar
    14     2     3   ar
    15     3     4   ar
    16     4     5   ar
    17     4    20    1
    18     5    17    1
    19    17    18    1
    20    18    19    2
    21    20    21    1
    22    21    22    1
    23    21    23    1
    24    23    24    2
    25    23    25   am
    26    25    27    1
    27    27    32   ar
    28    27    28   ar
    29    28    29   ar
    30    29    30   ar
    31    30    31   ar
    32    30    33    1
    33    31    32   ar
    34    33    34    3
    35     8     9    1
    36    25    26    1
#	Name:			ZINC28214722
#	Creating user name:	trannguyen
#	Creation time:		Wed Dec  7 14:36:20 2022


#	Modifying user name:	trannguyen
#	Modification time:	Wed Dec  7 14:36:20 2022

@<TRIPOS>MOLECULE
ZINC28214722
 42 46 0 0 0
SMALL
GASTEIGER

@<TRIPOS>ATOM
      1 C          13.8534  -25.4752   15.0138 C.2     1  UNL1        0.2645
      2 O          13.5948  -24.2872   15.0350 O.2     1  UNL1       -0.2684
      3 N          15.1048  -25.8875   14.7301 N.am    1  UNL1       -0.2023
      4 H          15.3142  -26.8493   14.7128 H       1  UNL1        0.1776
      5 C          10.8132  -28.3255   15.8334 C.ar    1  UNL1        0.0327
      6 C          10.7791  -27.6018   14.6546 C.ar    1  UNL1        0.0015
      7 C          11.7634  -26.6746   14.3821 C.ar    1  UNL1        0.0044
      8 C          12.7954  -26.4669   15.2990 C.ar    1  UNL1        0.0550
      9 C          12.8267  -27.2043   16.4841 C.ar    1  UNL1        0.0044
     10 C          11.8332  -28.1246   16.7466 C.ar    1  UNL1        0.0015
     11 C           9.7350  -29.3375   16.1239 C.3     1  UNL1        0.1332
     12 C          12.0280  -33.9909   12.3290 C.ar    1  UNL1       -0.0003
     13 C          12.1703  -32.7776   11.6815 C.ar    1  UNL1       -0.0001
     14 C          11.8046  -31.6104   12.3207 C.ar    1  UNL1        0.0011
     15 C          11.2941  -31.6468   13.6102 C.ar    1  UNL1        0.0289
     16 C          11.1497  -32.8569   14.2541 C.ar    1  UNL1       -0.0148
     17 C          11.5191  -34.0290   13.6116 C.ar    1  UNL1       -0.0042
     18 C          10.5943  -32.9478   15.6522 C.3     1  UNL1        0.0871
     19 C          10.6439  -31.5751   16.3235 C.3     1  UNL1        0.1108
     20 N          10.0349  -30.5894   15.4162 N.4     1  UNL1        0.2829
     21 C          10.9128  -30.3462   14.2673 C.3     1  UNL1        0.1328
     22 H           9.1527  -30.9694   15.0729 H       1  UNL1        0.2074
     23 N          16.1076  -24.9473   14.4598 N.2     1  UNL1       -0.1773
     24 C          17.1397  -25.2855   13.7488 C.2     1  UNL1        0.1176
     25 C          18.1949  -24.2962   13.4642 C.ar    1  UNL1        0.0209
     26 C          19.5406  -24.6648   13.5420 C.ar    1  UNL1        0.0047
     27 C          20.5235  -23.7365   13.2756 C.ar    1  UNL1        0.0370
     28 C          20.1785  -22.4361   12.9301 C.ar    1  UNL1        0.1393
     29 C          18.8423  -22.0638   12.8567 C.ar    1  UNL1        0.0370
     30 C          17.8525  -22.9867   13.1162 C.ar    1  UNL1        0.0047
     31 O          21.1508  -21.5242   12.6688 O.3     1  UNL1       -0.4656
     32 C          21.1324  -20.3184   13.4356 C.3     1  UNL1        0.2893
     33 C          21.4466  -20.6339   14.8753 C.2     1  UNL1        0.2671
     34 O          22.5912  -20.8505   15.2129 O.2     1  UNL1       -0.2711
     35 N          20.4555  -20.6754   15.7878 N.am    1  UNL1       -0.2990
     36 H          19.5264  -20.4997   15.5139 H       1  UNL1        0.1496
     37 C          20.7609  -20.9821   17.1874 C.3     1  UNL1        0.1191
     38 C          20.5837  -22.4822   17.4311 C.3     1  UNL1        0.1348
     39 C          19.2975  -22.9995   16.7381 C.3     1  UNL1        0.0339
     40 C          18.9586  -24.2547   17.5785 C.3     1  UNL1        0.0346
     41 C          19.6990  -24.0282   18.9109 C.3     1  UNL1        0.1422
     42 O          20.3442  -22.7461   18.8323 O.3     1  UNL1       -0.3545
@<TRIPOS>UNITY_ATOM_ATTR
20 1
charge 1
@<TRIPOS>BOND
     1    12    17   ar
     2    12    13   ar
     3    13    14   ar
     4    14    15   ar
     5    15    21    1
     6    15    16   ar
     7    16    17   ar
     8    16    18    1
     9    18    19    1
    10    19    20    1
    11    20    21    1
    12    20    11    1
    13    11     5    1
    14     5    10   ar
    15     5     6   ar
    16     6     7   ar
    17     7     8   ar
    18     8     9   ar
    19     8     1    1
    20     9    10   ar
    21     1     2    2
    22     1     3   am
    23     3    23    1
    24    23    24    2
    25    24    25    1
    26    25    30   ar
    27    25    26   ar
    28    26    27   ar
    29    27    28   ar
    30    28    29   ar
    31    28    31    1
    32    29    30   ar
    33    31    32    1
    34    32    33    1
    35    33    34    2
    36    33    35   am
    37    35    37    1
    38    37    38    1
    39    38    42    1
    40    38    39    1
    41    39    40    1
    42    40    41    1
    43    41    42    1
    44    20    22    1
    45     3     4    1
    46    35    36    1
#	Name:			ZINC28479223
#	Creating user name:	trannguyen
#	Creation time:		Wed Dec  7 14:36:19 2022


#	Modifying user name:	trannguyen
#	Modification time:	Wed Dec  7 14:36:19 2022

@<TRIPOS>MOLECULE
ZINC28479223
 36 37 0 0 0
SMALL
GASTEIGER

@<TRIPOS>ATOM
      1 N          20.3987  -27.1674   14.5686 N.am    1  UNL1       -0.2335
      2 C          20.2341  -26.4507   13.4390 C.2     1  UNL1        0.2541
      3 O          21.0008  -26.5974   12.5108 O.2     1  UNL1       -0.2721
      4 H          19.7764  -27.0482   15.3222 H       1  UNL1        0.1728
      5 C          19.0977  -25.4671   13.3295 C.3     1  UNL1        0.1568
      6 C          18.7948  -25.1947   11.8527 C.3     1  UNL1        0.0271
      7 C          17.7371  -24.0937   11.7477 C.3     1  UNL1        0.0034
      8 C          18.2747  -22.8059   12.3760 C.3     1  UNL1        0.0192
      9 C          18.5718  -23.0512   13.8587 C.3     1  UNL1        0.0963
     10 N          19.4764  -24.2030   13.9755 N.3     1  UNL1       -0.1481
     11 S          20.8959  -24.0789   14.8193 S.O2    1  UNL1        0.0637
     12 O          20.6941  -24.7516   16.0547 O.2     1  UNL1       -0.1528
     13 O          21.9361  -24.4348   13.9190 O.2     1  UNL1       -0.1528
     14 C          21.1251  -22.3750   15.2055 C.ar    1  UNL1        0.1223
     15 C          20.5896  -21.8516   16.3674 C.ar    1  UNL1        0.0216
     16 C          20.7728  -20.5158   16.6723 C.ar    1  UNL1        0.0254
     17 C          21.4842  -19.7015   15.8111 C.ar    1  UNL1        0.1430
     18 C          22.0157  -20.2239   14.6468 C.ar    1  UNL1        0.0254
     19 C          21.8358  -21.5606   14.3438 C.ar    1  UNL1        0.0216
     20 N          21.6764  -18.2701   16.1352 N.pl3   1  UNL1        0.0577
     21 O          20.7332  -17.5013   16.0813 O.2     1  UNL1       -0.1261
     22 O          22.7779  -17.8610   16.4559 O.2     1  UNL1       -0.1261
     23 N          21.4551  -28.0819   14.6703 N.am    1  UNL1       -0.2458
     24 H          22.3143  -27.8001   15.0598 H       1  UNL1        0.1718
     25 C          21.2952  -29.3474   14.2350 C.2     1  UNL1        0.1473
     26 S          20.2714  -30.4228   15.0873 S.2     1  UNL1       -0.0174
     27 N          21.9412  -29.7662   13.1288 N.am    1  UNL1       -0.3150
     28 H          22.9020  -29.9768   13.1699 H       1  UNL1        0.1485
     29 C          21.2136  -29.9080   11.8651 C.3     1  UNL1        0.0884
     30 C          22.2082  -30.1528   10.7286 C.3     1  UNL1        0.0196
     31 C          23.3132  -31.0942   11.2119 C.3     1  UNL1        0.0017
     32 C          22.8256  -28.8215   10.2956 C.3     1  UNL1        0.0017
     33 C          24.2406  -28.7061   10.8657 C.3     1  UNL1        0.0001
     34 C          25.2267  -28.4252    9.7300 C.3     1  UNL1        0.0000
     35 C          24.8528  -26.7770    7.8900 C.3     1  UNL1        0.0000
     36 C          24.4529  -28.1477    8.4396 C.3     1  UNL1        0.0000
@<TRIPOS>BOND
     1    35    36    1
     2    36    34    1
     3    34    33    1
     4    33    32    1
     5    32    30    1
     6    30    31    1
     7    30    29    1
     8    29    27    1
     9    27    25    1
    10    25    26    2
    11    25    23    1
    12    23     1    1
    13     1     2   am
    14     2     3    2
    15     2     5    1
    16     5    10    1
    17     5     6    1
    18     6     7    1
    19     7     8    1
    20     8     9    1
    21     9    10    1
    22    10    11    1
    23    11    12    2
    24    11    13    2
    25    11    14    1
    26    14    19   ar
    27    14    15   ar
    28    15    16   ar
    29    16    17   ar
    30    17    18   ar
    31    17    20    1
    32    18    19   ar
    33    20    21    2
    34    20    22    2
    35    27    28    1
    36    23    24    1
    37     1     4    1
#	Name:			ZINC28479232
#	Creating user name:	trannguyen
#	Creation time:		Wed Dec  7 14:36:19 2022


#	Modifying user name:	trannguyen
#	Modification time:	Wed Dec  7 14:36:19 2022

@<TRIPOS>MOLECULE
ZINC28479232
 36 37 0 0 0
SMALL
GASTEIGER

@<TRIPOS>ATOM
      1 N          20.5487  -26.8904   14.9341 N.am    1  UNL1       -0.2335
      2 C          20.8491  -26.3800   13.7235 C.2     1  UNL1        0.2541
      3 O          21.8931  -26.6772   13.1823 O.2     1  UNL1       -0.2721
      4 H          19.7014  -26.6491   15.3735 H       1  UNL1        0.1728
      5 C          19.8881  -25.4400   13.0424 C.3     1  UNL1        0.1568
      6 C          18.4523  -25.7838   13.4510 C.3     1  UNL1        0.0271
      7 C          17.4962  -24.7419   12.8656 C.3     1  UNL1        0.0034
      8 C          17.8387  -23.3581   13.4230 C.3     1  UNL1        0.0192
      9 C          19.2690  -22.9887   13.0169 C.3     1  UNL1        0.0963
     10 N          20.1779  -24.0586   13.4502 N.3     1  UNL1       -0.1481
     11 S          21.5036  -23.7141   14.3809 S.O2    1  UNL1        0.0637
     12 O          21.3845  -24.4948   15.5623 O.2     1  UNL1       -0.1528
     13 O          22.6341  -23.7968   13.5238 O.2     1  UNL1       -0.1528
     14 C          21.3691  -22.0283   14.8756 C.ar    1  UNL1        0.1223
     15 C          21.8693  -21.0277   14.0635 C.ar    1  UNL1        0.0216
     16 C          21.7594  -19.7049   14.4493 C.ar    1  UNL1        0.0254
     17 C          21.1587  -19.3833   15.6521 C.ar    1  UNL1        0.1430
     18 C          20.6631  -20.3842   16.4666 C.ar    1  UNL1        0.0254
     19 C          20.7683  -21.7068   16.0783 C.ar    1  UNL1        0.0216
     20 N          21.0465  -17.9671   16.0681 N.pl3   1  UNL1        0.0577
     21 O          19.9627  -17.4117   16.0517 O.2     1  UNL1       -0.1261
     22 O          22.0380  -17.3573   16.4266 O.2     1  UNL1       -0.1261
     23 N          21.4420  -27.7642   15.5673 N.am    1  UNL1       -0.2458
     24 H          21.9380  -28.4298   15.0381 H       1  UNL1        0.1718
     25 C          21.6224  -27.6938   16.9012 C.2     1  UNL1        0.1473
     26 S          22.4601  -28.9430   17.7188 S.2     1  UNL1       -0.0174
     27 N          21.1434  -26.6398   17.5912 N.am    1  UNL1       -0.3150
     28 H          21.2977  -25.7248   17.2622 H       1  UNL1        0.1485
     29 C          20.3930  -26.8558   18.8307 C.3     1  UNL1        0.0884
     30 C          20.6597  -25.6994   19.7964 C.3     1  UNL1        0.0196
     31 C          21.3765  -24.5699   19.0538 C.3     1  UNL1        0.0017
     32 C          19.3313  -25.1821   20.3519 C.3     1  UNL1        0.0017
     33 C          18.8133  -24.0495   19.4633 C.3     1  UNL1        0.0001
     34 C          17.3190  -24.2488   19.2022 C.3     1  UNL1        0.0000
     35 C          18.2419  -24.3757   16.8839 C.3     1  UNL1        0.0000
     36 C          17.1203  -24.8508   17.8097 C.3     1  UNL1        0.0000
@<TRIPOS>BOND
     1    35    36    1
     2    36    34    1
     3    34    33    1
     4    33    32    1
     5    32    30    1
     6    30    31    1
     7    30    29    1
     8    29    27    1
     9    27    25    1
    10    25    26    2
    11    25    23    1
    12    23     1    1
    13     1     2   am
    14     2     3    2
    15     2     5    1
    16     5    10    1
    17     5     6    1
    18     6     7    1
    19     7     8    1
    20     8     9    1
    21     9    10    1
    22    10    11    1
    23    11    12    2
    24    11    13    2
    25    11    14    1
    26    14    19   ar
    27    14    15   ar
    28    15    16   ar
    29    16    17   ar
    30    17    18   ar
    31    17    20    1
    32    18    19   ar
    33    20    21    2
    34    20    22    2
    35    27    28    1
    36    23    24    1
    37     1     4    1
#	Name:			ZINC28491705
#	Creating user name:	trannguyen
#	Creation time:		Wed Dec  7 14:36:20 2022


#	Modifying user name:	trannguyen
#	Modification time:	Wed Dec  7 14:36:20 2022

@<TRIPOS>MOLECULE
ZINC28491705
 34 37 0 0 0
SMALL
GASTEIGER

@<TRIPOS>ATOM
      1 C          17.3952  -24.1397   11.1903 C.3     1  UNL1        0.0575
      2 C          17.2466  -24.1741   12.7127 C.3     1  UNL1        0.2443
      3 C          18.4680  -24.8126   13.3222 C.2     1  UNL1        0.2628
      4 O          18.8849  -25.8641   12.8845 O.2     1  UNL1       -0.2712
      5 N          19.0969  -24.2154   14.3537 N.am    1  UNL1       -0.3011
      6 H          18.7585  -23.3619   14.7090 H       1  UNL1        0.1495
      7 C          20.2842  -24.8362   14.9463 C.3     1  UNL1        0.0942
      8 C          20.8150  -23.9484   16.0737 C.3     1  UNL1        0.0491
      9 C          21.3137  -22.6485   15.4970 C.ar    1  UNL1       -0.0021
     10 C          22.1874  -22.5057   14.4880 C.ar    1  UNL1        0.0681
     11 N          22.4017  -21.1770   14.2408 N.ar    1  UNL1       -0.3523
     12 C          21.6519  -20.4129   15.1069 C.ar    1  UNL1        0.0563
     13 C          20.9375  -21.3011   15.9318 C.ar    1  UNL1        0.0131
     14 C          20.0879  -20.8024   16.9207 C.ar    1  UNL1        0.0012
     15 C          19.9474  -19.4521   17.0768 C.ar    1  UNL1        0.0001
     16 C          20.6498  -18.5719   16.2657 C.ar    1  UNL1        0.0015
     17 C          21.4972  -19.0424   15.2864 C.ar    1  UNL1        0.0170
     18 H          23.0025  -20.8204   13.5471 H       1  UNL1        0.1660
     19 O          16.0690  -24.9462   13.0667 O.3     1  UNL1       -0.4397
     20 C          15.3935  -24.5617   14.1667 C.2     1  UNL1        0.3423
     21 O          14.6864  -23.5751   14.1309 O.2     1  UNL1       -0.2449
     22 C          15.5132  -25.3414   15.4189 C.ar    1  UNL1        0.0884
     23 C          16.3797  -24.9370   16.4364 C.ar    1  UNL1        0.0219
     24 C          16.4655  -25.6907   17.5929 C.ar    1  UNL1        0.0594
     25 N          15.7461  -26.7830   17.7545 N.ar    1  UNL1       -0.2428
     26 C          14.9076  -27.2168   16.8262 C.ar    1  UNL1        0.1161
     27 C          14.7512  -26.5105   15.6206 C.ar    1  UNL1        0.0981
     28 C          17.4013  -25.2540   18.6905 C.3     1  UNL1        0.0403
     29 C          16.9300  -24.1297   19.6150 C.3     1  UNL1        0.0063
     30 C          18.0221  -23.8603   18.5768 C.3     1  UNL1        0.0063
     31 C          13.8412  -26.9720   14.6161 C.1     1  UNL1        0.1027
     32 N          13.1192  -27.3383   13.8190 N.1     1  UNL1       -0.1908
     33 S          13.9751  -28.6852   17.1070 S.3     1  UNL1       -0.0934
     34 C          12.5389  -27.9873   17.9592 C.3     1  UNL1        0.0757
@<TRIPOS>BOND
     1     1     2    1
     2     2     3    1
     3     2    19    1
     4     3     4    2
     5     3     5   am
     6     5     7    1
     7     7     8    1
     8     8     9    1
     9     9    13   ar
    10     9    10   ar
    11    10    11   ar
    12    11    12   ar
    13    12    17   ar
    14    12    13   ar
    15    13    14   ar
    16    14    15   ar
    17    15    16   ar
    18    16    17   ar
    19    19    20    1
    20    20    21    2
    21    20    22    1
    22    22    27   ar
    23    22    23   ar
    24    23    24   ar
    25    24    25   ar
    26    24    28    1
    27    25    26   ar
    28    26    27   ar
    29    26    33    1
    30    27    31    1
    31    31    32    3
    32    33    34    1
    33    28    30    1
    34    28    29    1
    35    29    30    1
    36     5     6    1
    37    11    18    1
#	Name:			ZINC28538665
#	Creating user name:	trannguyen
#	Creation time:		Wed Dec  7 14:36:20 2022


#	Modifying user name:	trannguyen
#	Modification time:	Wed Dec  7 14:36:20 2022

@<TRIPOS>MOLECULE
ZINC28538665
 48 51 0 0 0
SMALL
GASTEIGER

@<TRIPOS>ATOM
      1 S          18.3476  -26.9408   18.7319 S.3     1  UNL1       -0.0304
      2 C          18.5034  -25.3480   17.9947 C.2     1  UNL1        0.1179
      3 N          17.5026  -24.5013   18.0450 N.2     1  UNL1       -0.2913
      4 H          17.5896  -23.6113   17.6332 H       1  UNL1        0.1874
      5 C          19.7542  -24.9682   17.3237 C.2     1  UNL1        0.1496
      6 C          20.1228  -25.5914   16.1256 C.2     1  UNL1        0.2248
      7 N          19.3855  -26.4853   15.4288 N.pl3   1  UNL1       -0.2027
      8 N          20.1397  -26.8418   14.3011 N.2     1  UNL1       -0.1411
      9 C          21.2648  -26.1867   14.3527 C.2     1  UNL1        0.2455
     10 O          21.2768  -25.4154   15.4603 O.2     1  UNL1       -0.4196
     11 H          18.4912  -26.8212   15.6671 H       1  UNL1        0.1776
     12 C          22.3542  -26.2742   13.3572 C.ar    1  UNL1        0.0551
     13 C          22.3371  -27.2782   12.3875 C.ar    1  UNL1        0.0078
     14 C          23.3515  -27.3527   11.4573 C.ar    1  UNL1        0.0371
     15 C          24.3960  -26.4381   11.4914 C.ar    1  UNL1        0.1387
     16 C          24.4195  -25.4412   12.4580 C.ar    1  UNL1        0.0371
     17 C          23.4056  -25.3564   13.3879 C.ar    1  UNL1        0.0078
     18 O          25.3971  -26.5184   10.5766 O.3     1  UNL1       -0.4714
     19 C          25.0148  -26.6725    9.2084 C.3     1  UNL1        0.2525
     20 C          20.5841  -23.9748   17.8871 C.2     1  UNL1        0.3476
     21 O          21.7514  -24.2221   18.1292 O.2     1  UNL1       -0.2447
     22 O          20.0832  -22.7505   18.1575 O.3     1  UNL1       -0.4453
     23 C          19.8289  -20.4689   17.4024 C.3     1  UNL1        0.0513
     24 C          20.7994  -21.6276   17.6396 C.3     1  UNL1        0.2089
     25 S          16.3041  -27.1823   18.6332 S.3     1  UNL1       -0.0304
     26 C          16.1197  -27.5303   16.9158 C.2     1  UNL1        0.1179
     27 N          16.8883  -28.4250   16.3417 N.2     1  UNL1       -0.2913
     28 H          17.5682  -28.9020   16.8704 H       1  UNL1        0.1874
     29 C          15.1051  -26.8185   16.1267 C.2     1  UNL1        0.1496
     30 C          15.4897  -25.7971   15.2502 C.2     1  UNL1        0.2248
     31 N          14.6673  -25.0627   14.4674 N.pl3   1  UNL1       -0.2027
     32 N          15.4773  -24.1584   13.7644 N.2     1  UNL1       -0.1411
     33 C          16.7121  -24.3704   14.1223 C.2     1  UNL1        0.2455
     34 O          16.7436  -25.3662   15.0328 O.2     1  UNL1       -0.4196
     35 H          13.6885  -25.1465   14.4031 H       1  UNL1        0.1776
     36 C          17.8897  -23.6336   13.6165 C.ar    1  UNL1        0.0551
     37 C          18.1265  -23.5511   12.2432 C.ar    1  UNL1        0.0078
     38 C          19.2222  -22.8579   11.7751 C.ar    1  UNL1        0.0371
     39 C          20.0968  -22.2529   12.6682 C.ar    1  UNL1        0.1387
     40 C          19.8677  -22.3377   14.0353 C.ar    1  UNL1        0.0371
     41 C          18.7709  -23.0238   14.5109 C.ar    1  UNL1        0.0078
     42 O          21.1790  -21.5759   12.2034 O.3     1  UNL1       -0.4714
     43 C          21.3841  -20.2551   12.7088 C.3     1  UNL1        0.2525
     44 C          13.7422  -27.1647   16.2525 C.2     1  UNL1        0.3476
     45 O          13.2212  -27.1967   17.3526 O.2     1  UNL1       -0.2447
     46 O          13.0165  -27.4601   15.1530 O.3     1  UNL1       -0.4453
     47 C          11.6337  -27.1001   15.1722 C.3     1  UNL1        0.2089
     48 C          10.9992  -27.4401   13.8221 C.3     1  UNL1        0.0513
@<TRIPOS>BOND
     1    23    24    1
     2    24    22    1
     3    22    20    1
     4    20    21    2
     5    20     5    1
     6     5     6    2
     7     5     2    1
     8     6    10    1
     9     6     7    1
    10     7     8    1
    11     8     9    2
    12     9    10    1
    13     9    12    1
    14    12    17   ar
    15    12    13   ar
    16    13    14   ar
    17    14    15   ar
    18    15    16   ar
    19    15    18    1
    20    16    17   ar
    21    18    19    1
    22     2     3    2
    23     2     1    1
    24     1    25    1
    25    25    26    1
    26    26    27    2
    27    26    29    1
    28    29    30    2
    29    29    44    1
    30    30    34    1
    31    30    31    1
    32    31    32    1
    33    32    33    2
    34    33    34    1
    35    33    36    1
    36    36    41   ar
    37    36    37   ar
    38    37    38   ar
    39    38    39   ar
    40    39    40   ar
    41    39    42    1
    42    40    41   ar
    43    42    43    1
    44    44    45    2
    45    44    46    1
    46    46    47    1
    47    47    48    1
    48     7    11    1
    49     3     4    1
    50    27    28    1
    51    31    35    1
#	Name:			ZINC28541058
#	Creating user name:	trannguyen
#	Creation time:		Wed Dec  7 14:36:20 2022


#	Modifying user name:	trannguyen
#	Modification time:	Wed Dec  7 14:36:20 2022

@<TRIPOS>MOLECULE
ZINC28541058
 40 40 0 0 0
SMALL
GASTEIGER

@<TRIPOS>ATOM
      1 C          19.1646  -25.2576   19.4466 C.2     1  UNL1        0.1967
      2 O          18.7037  -25.1545   20.5703 O.2     1  UNL1       -0.2867
      3 C          18.2650  -25.3926   18.2934 C.ar    1  UNL1        0.0992
      4 C          18.3875  -26.4768   17.4101 C.ar    1  UNL1       -0.0792
      5 C          17.4971  -26.5615   16.3232 C.ar    1  UNL1        0.0168
      6 C          16.5599  -25.6082   16.1437 C.ar    1  UNL1        0.1246
      7 O          16.4442  -24.5700   16.9820 O.2     1  UNL1       -0.4255
      8 C          17.2572  -24.4284   18.0433 C.ar    1  UNL1        0.3473
      9 O          17.1275  -23.4737   18.7884 O.2     1  UNL1       -0.2444
     10 O          19.3358  -27.4201   17.6014 O.co2   1  UNL1       -0.8726
     11 C          15.6194  -25.7141   14.9710 C.3     1  UNL1        0.0579
     12 C          14.8122  -24.4203   14.8461 C.3     1  UNL1        0.0080
     13 C          14.6659  -26.8912   15.1866 C.3     1  UNL1        0.0122
     14 C          13.2749  -26.3623   15.5416 C.3     1  UNL1        0.0278
     15 C          12.5849  -27.3391   16.4585 C.2     1  UNL1       -0.0101
     16 C          11.3555  -27.7370   16.1935 C.2     1  UNL1        0.0621
     17 N          10.7180  -28.6396   17.0408 N.am    1  UNL1       -0.2491
     18 C           9.5188  -29.1518   16.7003 C.2     1  UNL1        0.4055
     19 O           8.9940  -28.8261   15.6540 O.2     1  UNL1       -0.2261
     20 H          11.1433  -28.9036   17.8886 H       1  UNL1        0.1582
     21 O           8.9023  -30.0246   17.5197 O.3     1  UNL1       -0.4304
     22 C           8.0106  -29.4703   18.5226 C.3     1  UNL1        0.2574
     23 C          21.2218  -24.1403   18.7618 C.2     1  UNL1       -0.0017
     24 C          20.6142  -25.2469   19.2466 C.2     1  UNL1        0.0172
     25 C          21.4300  -26.4692   19.5808 C.3     1  UNL1        0.0344
     26 C          20.3424  -22.3945   17.3291 C.2     1  UNL1       -0.0438
     27 C          20.4508  -22.9145   18.5533 C.2     1  UNL1       -0.0087
     28 C          19.5483  -21.1318   17.1143 C.3     1  UNL1        0.0264
     29 C          21.0141  -23.0698   16.1613 C.3     1  UNL1        0.0249
     30 C          19.9553  -23.7301   15.2760 C.3     1  UNL1        0.0378
     31 C          20.2422  -23.4050   13.8088 C.3     1  UNL1        0.1288
     32 O          20.1927  -24.6063   13.0363 O.3     1  UNL1       -0.3804
     33 H          19.3113  -25.0039   13.1129 H       1  UNL1        0.2108
     34 C          19.5299  -21.1834   13.0889 C.2     1  UNL1       -0.0276
     35 C          19.2076  -22.4360   13.2973 C.2     1  UNL1       -0.0215
     36 C          17.8025  -22.9077   13.0256 C.3     1  UNL1        0.0285
     37 C          20.9696  -20.7492   13.1880 C.3     1  UNL1        0.0511
     38 C          22.0747  -18.2233   15.8615 C.3     1  UNL1        0.0304
     39 C          21.9790  -19.4510   14.9928 C.2     1  UNL1       -0.0300
     40 C          21.0653  -19.5214   14.0566 C.2     1  UNL1       -0.0260
@<TRIPOS>UNITY_ATOM_ATTR
10 1
charge -1
@<TRIPOS>BOND
     1    38    39    1
     2    39    40    2
     3    40    37    1
     4    37    34    1
     5    34    35    2
     6    35    36    1
     7    35    31    1
     8    31    30    1
     9    31    32    1
    10    30    29    1
    11    29    26    1
    12    26    27    2
    13    26    28    1
    14    27    23    1
    15    23    24    2
    16    24    25    1
    17    24     1    1
    18     1     2    2
    19     1     3    1
    20     3     8   ar
    21     3     4   ar
    22     4     5   ar
    23     4    10    1
    24     5     6   ar
    25     6     7   ar
    26     6    11    1
    27     7     8   ar
    28     8     9    2
    29    11    12    1
    30    11    13    1
    31    13    14    1
    32    14    15    1
    33    15    16    2
    34    16    17    1
    35    17    18   am
    36    18    19    2
    37    18    21    1
    38    21    22    1
    39    17    20    1
    40    32    33    1
#	Name:			ZINC28541231
#	Creating user name:	trannguyen
#	Creation time:		Wed Dec  7 14:36:20 2022


#	Modifying user name:	trannguyen
#	Modification time:	Wed Dec  7 14:36:20 2022

@<TRIPOS>MOLECULE
ZINC28541231
 38 40 0 0 0
SMALL
GASTEIGER

@<TRIPOS>ATOM
      1 C          17.7354  -25.8581   18.3523 C.ar    1  UNL1        0.1288
      2 N          18.5686  -26.1140   17.3563 N.ar    1  UNL1       -0.2368
      3 C          19.7337  -25.4961   17.2602 C.ar    1  UNL1        0.0882
      4 C          20.0847  -24.5725   18.2118 C.ar    1  UNL1        0.0560
      5 S          18.6498  -24.6319   19.2770 S.2     1  UNL1       -0.0644
      6 C          14.3274  -27.1037   17.8842 C.ar    1  UNL1        0.1066
      7 N          15.5231  -26.5813   17.6573 N.ar    1  UNL1       -0.2366
      8 C          16.4047  -26.4378   18.6301 C.ar    1  UNL1        0.1120
      9 C          16.0696  -26.8278   19.9040 C.ar    1  UNL1        0.0580
     10 S          14.4062  -27.4286   19.6401 S.2     1  UNL1       -0.0662
     11 C          13.2218  -26.7517   15.7529 C.2     1  UNL1        0.0028
     12 C          13.2236  -27.3467   16.9413 C.2     1  UNL1        0.0001
     13 C          12.0957  -28.2702   17.3234 C.3     1  UNL1        0.0329
     14 C          12.1609  -27.0961   14.7394 C.3     1  UNL1        0.1616
     15 O          11.3835  -25.9327   14.4495 O.3     1  UNL1       -0.3775
     16 H          11.9598  -25.2397   14.0914 H       1  UNL1        0.2109
     17 C          12.7914  -29.1021   13.1768 C.3     1  UNL1        0.1450
     18 C          12.8255  -27.5982   13.4560 C.3     1  UNL1        0.1729
     19 O          11.9857  -28.1710   12.4515 O.3     1  UNL1       -0.3508
     20 C          11.0180  -30.8323   13.4996 C.3     1  UNL1        0.0026
     21 C          12.0951  -30.0016   14.2001 C.3     1  UNL1        0.0298
     22 C          13.1233  -30.9358   14.8411 C.3     1  UNL1        0.0026
     23 C          20.6480  -25.7973   16.1394 C.2     1  UNL1        0.0175
     24 C          20.4520  -25.2350   14.9542 C.2     1  UNL1        0.0048
     25 C          19.2470  -24.3594   14.7256 C.3     1  UNL1        0.1443
     26 C          19.6456  -23.1574   13.8669 C.3     1  UNL1        0.0884
     27 C          18.3869  -22.4865   13.3133 C.3     1  UNL1        0.0108
     28 C          20.4118  -22.1703   14.7092 C.2     1  UNL1        0.1230
     29 C          21.4585  -21.5096   14.1850 C.2     1  UNL1        0.0899
     30 C          22.0052  -21.9191   12.9425 C.2     1  UNL1        0.2456
     31 O          21.6936  -21.3378   11.9192 O.2     1  UNL1       -0.2703
     32 N          22.8698  -22.9519   12.8942 N.am    1  UNL1       -0.3252
     33 H          23.1218  -23.4220   13.7217 H       1  UNL1        0.1453
     34 H          23.2494  -23.2361   12.0314 H       1  UNL1        0.1453
     35 O          20.0476  -21.9498   15.9885 O.2     1  UNL1       -0.4754
     36 C          20.2502  -20.6099   16.5101 C.3     1  UNL1        0.2520
     37 O          18.2335  -25.1097   14.0536 O.3     1  UNL1       -0.3488
     38 C          18.7415  -26.1060   13.1639 C.3     1  UNL1        0.1745
@<TRIPOS>BOND
     1    20    21    1
     2    21    22    1
     3    21    17    1
     4    17    19    1
     5    17    18    1
     6    18    19    1
     7    18    14    1
     8    14    11    1
     9    14    15    1
    10    11    12    2
    11    12    13    1
    12    12     6    1
    13     6    10   ar
    14     6     7   ar
    15     7     8   ar
    16     8     9   ar
    17     8     1    1
    18     9    10   ar
    19     1     5   ar
    20     1     2   ar
    21     2     3   ar
    22     3     4   ar
    23     3    23    1
    24     4     5   ar
    25    23    24    2
    26    24    25    1
    27    25    26    1
    28    25    37    1
    29    26    27    1
    30    26    28    1
    31    28    29    2
    32    28    35    1
    33    29    30    1
    34    30    31    2
    35    30    32   am
    36    35    36    1
    37    37    38    1
    38    32    33    1
    39    32    34    1
    40    15    16    1
#	Name:			ZINC28568909
#	Creating user name:	trannguyen
#	Creation time:		Wed Dec  7 14:36:19 2022


#	Modifying user name:	trannguyen
#	Modification time:	Wed Dec  7 14:36:19 2022

@<TRIPOS>MOLECULE
ZINC28568909
 46 49 0 0 0
SMALL
GASTEIGER

@<TRIPOS>ATOM
      1 C          15.1188  -26.6462   19.7576 C.2     1  UNL1        0.2402
      2 O          15.0325  -26.6595   20.9702 O.2     1  UNL1       -0.4911
      3 N          14.3004  -27.4180   19.0153 N.2     1  UNL1       -0.0907
      4 H          15.6015  -26.1229   21.4863 H       1  UNL1        0.2938
      5 C          18.0004  -24.1663   17.8593 C.ar    1  UNL1        0.0029
      6 C          17.5030  -25.2898   17.1974 C.ar    1  UNL1        0.0003
      7 C          16.5699  -26.0936   17.8115 C.ar    1  UNL1        0.0047
      8 C          16.1204  -25.7846   19.0980 C.ar    1  UNL1        0.0544
      9 C          16.6151  -24.6565   19.7578 C.ar    1  UNL1        0.0047
     10 C          17.5520  -23.8565   19.1440 C.ar    1  UNL1        0.0003
     11 C          20.8852  -21.6830   15.9595 C.ar    1  UNL1        0.0357
     12 C          20.6551  -21.5614   17.3191 C.ar    1  UNL1        0.0016
     13 C          19.7166  -22.3601   17.9394 C.ar    1  UNL1        0.0029
     14 C          19.0051  -23.3015   17.1973 C.ar    1  UNL1        0.0340
     15 C          19.2401  -23.4220   15.8236 C.ar    1  UNL1        0.1385
     16 C          20.1819  -22.6088   15.2130 C.ar    1  UNL1        0.0383
     17 O          18.5484  -24.3326   15.0910 O.3     1  UNL1       -0.4714
     18 C          18.9133  -24.4715   13.7164 C.3     1  UNL1        0.2525
     19 C          21.9078  -20.8012   15.2903 C.3     1  UNL1        0.1334
     20 C          22.1377  -18.4177   15.6490 C.3     1  UNL1        0.1678
     21 N          21.3231  -19.4772   15.0392 N.4     1  UNL1        0.2884
     22 C          21.1477  -19.2435   13.5995 C.3     1  UNL1        0.1678
     23 H          20.4012  -19.4539   15.4751 H       1  UNL1        0.2076
     24 S          13.1771  -28.3842   19.7550 S.O2    1  UNL1        0.1032
     25 O          12.2238  -27.5155   20.3515 O.2     1  UNL1       -0.1462
     26 O          13.9022  -29.3494   20.5046 O.2     1  UNL1       -0.1462
     27 C          12.3305  -29.2650   18.4852 C.ar    1  UNL1        0.1310
     28 C          12.9416  -30.3402   17.8662 C.ar    1  UNL1        0.0218
     29 C          12.2812  -31.0324   16.8704 C.ar    1  UNL1        0.0174
     30 C          11.0013  -30.6478   16.4909 C.ar    1  UNL1        0.0675
     31 C          10.3904  -29.5678   17.1148 C.ar    1  UNL1        0.1572
     32 C          11.0570  -28.8793   18.1096 C.ar    1  UNL1        0.0458
     33 N           9.0271  -29.1542   16.7135 N.pl3   1  UNL1        0.0589
     34 O           8.1213  -29.1705   17.5276 O.2     1  UNL1       -0.1261
     35 O           8.8111  -28.7973   15.5691 O.2     1  UNL1       -0.1261
     36 N          10.3326  -31.3420   15.4800 N.pl3   1  UNL1       -0.3306
     37 H           9.3601  -31.4831   15.5399 H       1  UNL1        0.1469
     38 C          11.0785  -31.8603   14.3305 C.3     1  UNL1        0.0992
     39 C          11.0966  -30.8097   13.2185 C.3     1  UNL1        0.0833
     40 S          12.7809  -30.1651   13.0228 S.3     1  UNL1       -0.1119
     41 C          12.7877  -28.6902   13.9865 C.ar    1  UNL1        0.0253
     42 C          11.7262  -27.7972   13.9008 C.ar    1  UNL1        0.0061
     43 C          11.7318  -26.6456   14.6626 C.ar    1  UNL1        0.0005
     44 C          12.7980  -26.3740   15.5006 C.ar    1  UNL1        0.0000
     45 C          13.8589  -27.2573   15.5839 C.ar    1  UNL1        0.0005
     46 C          13.8571  -28.4141   14.8300 C.ar    1  UNL1        0.0061
@<TRIPOS>UNITY_ATOM_ATTR
21 1
charge 1
@<TRIPOS>BOND
     1    20    21    1
     2    21    22    1
     3    21    19    1
     4    19    11    1
     5    11    16   ar
     6    11    12   ar
     7    12    13   ar
     8    13    14   ar
     9    14    15   ar
    10    14     5    1
    11    15    16   ar
    12    15    17    1
    13    17    18    1
    14     5    10   ar
    15     5     6   ar
    16     6     7   ar
    17     7     8   ar
    18     8     9   ar
    19     8     1    1
    20     9    10   ar
    21     1     2    1
    22     1     3    2
    23     3    24    1
    24    24    25    2
    25    24    26    2
    26    24    27    1
    27    27    32   ar
    28    27    28   ar
    29    28    29   ar
    30    29    30   ar
    31    30    31   ar
    32    30    36    1
    33    31    32   ar
    34    31    33    1
    35    33    34    2
    36    33    35    2
    37    36    38    1
    38    38    39    1
    39    39    40    1
    40    40    41    1
    41    41    46   ar
    42    41    42   ar
    43    42    43   ar
    44    43    44   ar
    45    44    45   ar
    46    45    46   ar
    47    21    23    1
    48     2     4    1
    49    36    37    1
#	Name:			ZINC28633365
#	Creating user name:	trannguyen
#	Creation time:		Wed Dec  7 14:36:19 2022


#	Modifying user name:	trannguyen
#	Modification time:	Wed Dec  7 14:36:19 2022

@<TRIPOS>MOLECULE
ZINC28633365
 31 32 0 0 0
SMALL
GASTEIGER

@<TRIPOS>ATOM
      1 N          23.1382  -25.4030   13.8513 N.am    1  UNL1       -0.2346
      2 C          21.8782  -25.8541   13.6922 C.2     1  UNL1        0.2384
      3 O          21.6231  -26.6404   12.8048 O.2     1  UNL1       -0.2736
      4 H          23.3452  -24.7647   14.5717 H       1  UNL1        0.1728
      5 N          24.1533  -25.8424   12.9915 N.am    1  UNL1       -0.2456
      6 H          24.6146  -26.6938   13.1692 H       1  UNL1        0.1718
      7 C          24.4983  -25.0995   11.9212 C.2     1  UNL1        0.1511
      8 S          24.7958  -23.4233   12.1027 S.2     1  UNL1       -0.0171
      9 N          24.6092  -25.6761   10.7082 N.am    1  UNL1       -0.2948
     10 H          24.5211  -25.1301    9.8936 H       1  UNL1        0.1539
     11 C          25.3252  -29.7728   10.4059 C.ar    1  UNL1        0.1386
     12 C          26.3572  -28.9122   10.7508 C.ar    1  UNL1        0.0382
     13 C          26.1207  -27.5554   10.8510 C.ar    1  UNL1        0.0178
     14 C          24.8499  -27.0525   10.6062 C.ar    1  UNL1        0.0498
     15 C          23.8164  -27.9150   10.2659 C.ar    1  UNL1        0.0178
     16 C          24.0554  -29.2710   10.1612 C.ar    1  UNL1        0.0382
     17 O          25.5587  -31.1087   10.3074 O.3     1  UNL1       -0.4755
     18 C          24.2284  -33.0540    9.7720 C.3     1  UNL1        0.0512
     19 C          24.5494  -31.9830   10.8164 C.3     1  UNL1        0.2055
     20 C          20.7862  -25.3814   14.6170 C.3     1  UNL1        0.0947
     21 C          20.6375  -23.8635   14.4967 C.3     1  UNL1        0.0787
     22 C          21.1681  -23.2062   15.7447 C.2     1  UNL1        0.1732
     23 O          21.8199  -23.8502   16.5388 O.2     1  UNL1       -0.2913
     24 C          20.8951  -21.7827   15.9996 C.ar    1  UNL1        0.0305
     25 C          21.4525  -20.8012   15.1736 C.ar    1  UNL1       -0.0017
     26 C          21.1886  -19.4699   15.4163 C.ar    1  UNL1       -0.0218
     27 C          20.3823  -19.1032   16.4799 C.ar    1  UNL1       -0.0046
     28 C          19.8314  -20.0680   17.3049 C.ar    1  UNL1       -0.0045
     29 C          20.0820  -21.4041   17.0724 C.ar    1  UNL1       -0.0191
     30 C          19.4808  -22.4533   17.9718 C.3     1  UNL1        0.0311
     31 C          21.7838  -18.4110   14.5243 C.3     1  UNL1        0.0310
@<TRIPOS>BOND
     1    18    19    1
     2    19    17    1
     3    17    11    1
     4    11    16   ar
     5    11    12   ar
     6    12    13   ar
     7    13    14   ar
     8    14    15   ar
     9    14     9    1
    10    15    16   ar
    11     9     7    1
    12     7     8    2
    13     7     5    1
    14     5     1    1
    15     1     2   am
    16     2     3    2
    17     2    20    1
    18    20    21    1
    19    21    22    1
    20    22    23    2
    21    22    24    1
    22    24    29   ar
    23    24    25   ar
    24    25    26   ar
    25    26    27   ar
    26    26    31    1
    27    27    28   ar
    28    28    29   ar
    29    29    30    1
    30     9    10    1
    31     5     6    1
    32     1     4    1
#	Name:			ZINC28664125
#	Creating user name:	trannguyen
#	Creation time:		Wed Dec  7 14:36:20 2022


#	Modifying user name:	trannguyen
#	Modification time:	Wed Dec  7 14:36:20 2022

@<TRIPOS>MOLECULE
ZINC28664125
 28 29 0 0 0
SMALL
GASTEIGER

@<TRIPOS>ATOM
      1 N          18.4663  -25.4702   13.0196 N.pl3   1  UNL1       -0.3228
      2 H          18.9983  -26.2880   12.8868 H       1  UNL1        0.1473
      3 C          15.3268  -25.3283   14.9358 C.ar    1  UNL1        0.1400
      4 C          15.8131  -25.2009   16.2285 C.ar    1  UNL1        0.0401
      5 C          17.1764  -25.1720   16.4573 C.ar    1  UNL1        0.0413
      6 C          18.0602  -25.2595   15.3950 C.ar    1  UNL1        0.1517
      7 C          17.5751  -25.3821   14.0950 C.ar    1  UNL1        0.0825
      8 C          16.2071  -25.4163   13.8684 C.ar    1  UNL1        0.0543
      9 O          13.9856  -25.3612   14.7146 O.3     1  UNL1       -0.4754
     10 C          11.9436  -26.6512   14.7997 C.3     1  UNL1        0.0512
     11 C          13.4143  -26.6272   14.3784 C.3     1  UNL1        0.2055
     12 O          19.4019  -25.2252   15.6208 O.3     1  UNL1       -0.4742
     13 C          19.9829  -26.3678   16.2523 C.3     1  UNL1        0.2056
     14 C          20.7052  -25.9328   17.5289 C.3     1  UNL1        0.0512
     15 C          18.6077  -24.3457   12.0914 C.3     1  UNL1        0.1740
     16 C          18.9592  -23.0992   12.8622 C.2     1  UNL1        0.2461
     17 O          18.1455  -22.2072   12.9763 O.2     1  UNL1       -0.2729
     18 N          20.1777  -22.9758   13.4247 N.am    1  UNL1       -0.2825
     19 H          20.8104  -23.7297   13.3991 H       1  UNL1        0.1549
     20 C          20.5426  -21.7795   14.0435 C.ar    1  UNL1        0.0512
     21 C          20.4720  -21.6650   15.4286 C.ar    1  UNL1        0.0154
     22 C          20.8363  -20.4888   16.0438 C.ar    1  UNL1        0.0124
     23 C          21.2666  -19.4035   15.2747 C.ar    1  UNL1        0.0791
     24 C          21.3311  -19.5197   13.8822 C.ar    1  UNL1        0.0685
     25 C          20.9703  -20.7034   13.2741 C.ar    1  UNL1        0.0267
     26 CL         21.8641  -18.1758   12.9211 Cl      1  UNL1       -0.0815
     27 C          21.6399  -18.1759   15.9107 C.1     1  UNL1        0.1013
     28 N          21.9360  -17.2021   16.4152 N.1     1  UNL1       -0.1908
@<TRIPOS>BOND
     1    10    11    1
     2    11     9    1
     3     9     3    1
     4     3     8   ar
     5     3     4   ar
     6     4     5   ar
     7     5     6   ar
     8     6     7   ar
     9     6    12    1
    10     7     8   ar
    11     7     1    1
    12     1    15    1
    13    15    16    1
    14    16    17    2
    15    16    18   am
    16    18    20    1
    17    20    25   ar
    18    20    21   ar
    19    21    22   ar
    20    22    23   ar
    21    23    24   ar
    22    23    27    1
    23    24    25   ar
    24    24    26    1
    25    27    28    3
    26    12    13    1
    27    13    14    1
    28     1     2    1
    29    18    19    1
#	Name:			ZINC28689166
#	Creating user name:	trannguyen
#	Creation time:		Wed Dec  7 14:36:20 2022


#	Modifying user name:	trannguyen
#	Modification time:	Wed Dec  7 14:36:20 2022

@<TRIPOS>MOLECULE
ZINC28689166
 38 40 0 0 0
SMALL
GASTEIGER

@<TRIPOS>ATOM
      1 C          21.0531  -28.4764   15.3570 C.3     1  UNL1        0.0575
      2 C          20.4622  -27.0913   15.0867 C.3     1  UNL1        0.2447
      3 C          21.3196  -26.3668   14.0813 C.2     1  UNL1        0.2665
      4 O          20.8662  -26.0776   12.9941 O.2     1  UNL1       -0.2709
      5 N          22.5903  -26.0404   14.3901 N.am    1  UNL1       -0.2786
      6 H          22.9538  -26.2627   15.2776 H       1  UNL1        0.1551
      7 C          23.3937  -25.3846   13.4481 C.ar    1  UNL1        0.0854
      8 C          24.0109  -26.1068   12.4371 C.ar    1  UNL1        0.0178
      9 C          24.7982  -25.4568   11.5058 C.ar    1  UNL1        0.0015
     10 C          24.9824  -24.0887   11.5850 C.ar    1  UNL1        0.0032
     11 C          24.3754  -23.3629   12.5928 C.ar    1  UNL1        0.0388
     12 C          23.5796  -24.0061   13.5275 C.ar    1  UNL1        0.1586
     13 O          22.9816  -23.2937   14.5190 O.3     1  UNL1       -0.4522
     14 C          22.0671  -22.3529   14.1659 C.ar    1  UNL1        0.1454
     15 C          22.2210  -21.0405   14.5895 C.ar    1  UNL1        0.0375
     16 C          21.2925  -20.0850   14.2248 C.ar    1  UNL1        0.0031
     17 C          20.2046  -20.4375   13.4475 C.ar    1  UNL1        0.0002
     18 C          20.0458  -21.7457   13.0288 C.ar    1  UNL1        0.0031
     19 C          20.9744  -22.7040   13.3859 C.ar    1  UNL1        0.0375
     20 O          20.4215  -26.3326   16.3241 O.3     1  UNL1       -0.4397
     21 C          19.7369  -25.1720   16.3078 C.2     1  UNL1        0.3417
     22 O          20.2888  -24.1366   16.6238 O.2     1  UNL1       -0.2449
     23 C          18.3179  -25.1584   15.9066 C.ar    1  UNL1        0.0797
     24 C          17.3691  -25.8524   16.6635 C.ar    1  UNL1        0.0465
     25 C          16.0414  -25.8372   16.2837 C.ar    1  UNL1        0.1735
     26 C          15.6492  -25.1313   15.1473 C.ar    1  UNL1        0.1833
     27 C          16.5922  -24.4463   14.3916 C.ar    1  UNL1        0.0948
     28 C          17.9186  -24.4524   14.7687 C.ar    1  UNL1        0.0211
     29 CL         16.0989  -23.5754   12.9732 Cl      1  UNL1       -0.0790
     30 O          15.1164  -26.5114   17.0181 O.3     1  UNL1       -0.4683
     31 C          15.5549  -27.0715   18.2575 C.3     1  UNL1        0.2526
     32 O          14.3432  -25.1179   14.7750 O.3     1  UNL1       -0.4617
     33 C          13.7484  -26.3760   14.4499 C.3     1  UNL1        0.2893
     34 C          12.3124  -26.3856   14.9066 C.2     1  UNL1        0.2639
     35 O          11.5730  -25.4736   14.6022 O.2     1  UNL1       -0.2713
     36 N          11.8495  -27.4076   15.6534 N.am    1  UNL1       -0.3258
     37 H          12.4496  -28.1479   15.9005 H       1  UNL1        0.1451
     38 H          10.9113  -27.4139   15.9518 H       1  UNL1        0.1451
@<TRIPOS>BOND
     1     1     2    1
     2     2     3    1
     3     2    20    1
     4     3     4    2
     5     3     5   am
     6     5     7    1
     7     7    12   ar
     8     7     8   ar
     9     8     9   ar
    10     9    10   ar
    11    10    11   ar
    12    11    12   ar
    13    12    13    1
    14    13    14    1
    15    14    19   ar
    16    14    15   ar
    17    15    16   ar
    18    16    17   ar
    19    17    18   ar
    20    18    19   ar
    21    20    21    1
    22    21    22    2
    23    21    23    1
    24    23    28   ar
    25    23    24   ar
    26    24    25   ar
    27    25    26   ar
    28    25    30    1
    29    26    27   ar
    30    26    32    1
    31    27    28   ar
    32    27    29    1
    33    32    33    1
    34    33    34    1
    35    34    35    2
    36    34    36   am
    37    30    31    1
    38     5     6    1
    39    36    37    1
    40    36    38    1
#	Name:			ZINC28754396
#	Creating user name:	trannguyen
#	Creation time:		Wed Dec  7 14:36:19 2022


#	Modifying user name:	trannguyen
#	Modification time:	Wed Dec  7 14:36:19 2022

@<TRIPOS>MOLECULE
ZINC28754396
 33 35 0 0 0
SMALL
GASTEIGER

@<TRIPOS>ATOM
      1 C          18.8562  -23.3652   12.3504 C.3     1  UNL1        0.2443
      2 C          18.1926  -23.6400   10.9995 C.3     1  UNL1        0.0575
      3 C          17.9039  -23.7277   13.4608 C.2     1  UNL1        0.2628
      4 O          17.7672  -22.9842   14.4092 O.2     1  UNL1       -0.2712
      5 N          17.2043  -24.8781   13.3999 N.am    1  UNL1       -0.3011
      6 H          17.3154  -25.4815   12.6300 H       1  UNL1        0.1495
      7 C          16.2786  -25.2305   14.4793 C.3     1  UNL1        0.0942
      8 C          15.5876  -26.5543   14.1467 C.3     1  UNL1        0.0491
      9 C          14.1037  -26.4163   14.3700 C.ar    1  UNL1       -0.0021
     10 C          13.4886  -25.4555   15.0775 C.ar    1  UNL1        0.0681
     11 N          12.1353  -25.6567   15.0595 N.ar    1  UNL1       -0.3523
     12 C          11.8388  -26.7806   14.3213 C.ar    1  UNL1        0.0563
     13 C          13.0588  -27.3057   13.8570 C.ar    1  UNL1        0.0131
     14 C          13.0668  -28.4625   13.0758 C.ar    1  UNL1        0.0012
     15 C          11.8870  -29.0747   12.7580 C.ar    1  UNL1        0.0001
     16 C          10.6810  -28.5606   13.2134 C.ar    1  UNL1        0.0015
     17 C          10.6504  -27.4226   13.9896 C.ar    1  UNL1        0.0170
     18 H          11.4722  -25.0834   15.5078 H       1  UNL1        0.1660
     19 O          19.1964  -21.9568   12.4451 O.3     1  UNL1       -0.4397
     20 C          20.4894  -21.6538   12.6734 C.2     1  UNL1        0.3428
     21 O          21.3619  -22.1707   12.0040 O.2     1  UNL1       -0.2448
     22 C          20.9674  -20.5436   17.5267 C.3     1  UNL1        0.0323
     23 C          21.0776  -20.1534   16.0753 C.ar    1  UNL1       -0.0082
     24 C          21.5153  -18.8897   15.7324 C.ar    1  UNL1       -0.0030
     25 C          21.6206  -18.5212   14.4011 C.ar    1  UNL1       -0.0000
     26 C          21.2898  -19.4129   13.4037 C.ar    1  UNL1        0.0077
     27 C          20.8454  -20.6953   13.7349 C.ar    1  UNL1        0.0888
     28 C          20.7344  -21.0632   15.0848 C.ar    1  UNL1        0.0525
     29 N          20.2876  -22.3367   15.4285 N.am    1  UNL1       -0.2840
     30 C          21.1703  -23.3457   15.5677 C.2     1  UNL1        0.2266
     31 O          22.3393  -23.1704   15.2968 O.2     1  UNL1       -0.2748
     32 C          20.7045  -24.6916   16.0602 C.3     1  UNL1        0.0949
     33 H          19.3271  -22.4999   15.5698 H       1  UNL1        0.1548
@<TRIPOS>BOND
     1    22    23    1
     2    23    28   ar
     3    23    24   ar
     4    24    25   ar
     5    25    26   ar
     6    26    27   ar
     7    27    28   ar
     8    27    20    1
     9    28    29    1
    10    29    30   am
    11    30    31    2
    12    30    32    1
    13    20    21    2
    14    20    19    1
    15    19     1    1
    16     1     2    1
    17     1     3    1
    18     3     4    2
    19     3     5   am
    20     5     7    1
    21     7     8    1
    22     8     9    1
    23     9    13   ar
    24     9    10   ar
    25    10    11   ar
    26    11    12   ar
    27    12    17   ar
    28    12    13   ar
    29    13    14   ar
    30    14    15   ar
    31    15    16   ar
    32    16    17   ar
    33    29    33    1
    34     5     6    1
    35    11    18    1
#	Name:			ZINC28855033
#	Creating user name:	trannguyen
#	Creation time:		Wed Dec  7 14:36:19 2022


#	Modifying user name:	trannguyen
#	Modification time:	Wed Dec  7 14:36:19 2022

@<TRIPOS>MOLECULE
ZINC28855033
 39 42 0 0 0
SMALL
GASTEIGER

@<TRIPOS>ATOM
      1 C          18.0305  -23.7946   11.0793 C.3     1  UNL1        0.0575
      2 C          17.8316  -23.1655   12.4598 C.3     1  UNL1        0.2447
      3 C          16.6705  -23.8312   13.1525 C.2     1  UNL1        0.2665
      4 O          15.6307  -23.2269   13.3099 O.2     1  UNL1       -0.2709
      5 N          16.7875  -25.0982   13.5972 N.am    1  UNL1       -0.2785
      6 H          17.6097  -25.6090   13.4173 H       1  UNL1        0.1551
      7 C          15.7395  -25.6879   14.3151 C.ar    1  UNL1        0.0879
      8 C          14.6704  -26.2477   13.6364 C.ar    1  UNL1        0.0552
      9 C          13.6303  -26.8393   14.3416 C.ar    1  UNL1        0.1467
     10 C          13.6713  -26.8520   15.7427 C.ar    1  UNL1        0.0406
     11 C          14.7449  -26.2834   16.4219 C.ar    1  UNL1        0.0413
     12 C          15.7769  -25.7026   15.7103 C.ar    1  UNL1        0.1522
     13 C          12.4366  -27.5358   16.1725 C.ar    1  UNL1        0.0376
     14 C          11.8947  -27.8627   17.4111 C.ar    1  UNL1        0.0031
     15 C          10.6860  -28.5236   17.4758 C.ar    1  UNL1        0.0002
     16 C          10.0143  -28.8601   16.3113 C.ar    1  UNL1        0.0031
     17 C          10.5427  -28.5408   15.0781 C.ar    1  UNL1        0.0375
     18 C          11.7598  -27.8752   14.9928 C.ar    1  UNL1        0.1453
     19 O          12.4923  -27.4496   13.9401 O.2     1  UNL1       -0.4535
     20 O          16.8286  -25.1448   16.3689 O.3     1  UNL1       -0.4702
     21 C          17.0586  -25.5802   17.7104 C.3     1  UNL1        0.2525
     22 O          19.0352  -23.3452   13.2516 O.3     1  UNL1       -0.4397
     23 C          19.9342  -22.3412   13.2348 C.2     1  UNL1        0.3428
     24 O          20.5076  -22.0563   12.2019 O.2     1  UNL1       -0.2448
     25 C          20.2216  -21.5894   14.4683 C.ar    1  UNL1        0.0904
     26 C          20.7163  -20.2837   14.3972 C.ar    1  UNL1        0.0318
     27 C          20.9831  -19.5863   15.5544 C.ar    1  UNL1        0.1432
     28 C          20.7639  -20.1717   16.7917 C.ar    1  UNL1        0.0253
     29 C          20.2762  -21.4591   16.8791 C.ar    1  UNL1        0.0162
     30 C          19.9953  -22.1772   15.7230 C.ar    1  UNL1        0.0510
     31 N          21.5064  -18.2038   15.4765 N.pl3   1  UNL1        0.0577
     32 O          22.0716  -17.8226   14.4672 O.2     1  UNL1       -0.1261
     33 O          21.3716  -17.4475   16.4216 O.2     1  UNL1       -0.1261
     34 N          19.4986  -23.4708   15.8083 N.pl3   1  UNL1       -0.3305
     35 H          18.6024  -23.6781   15.4573 H       1  UNL1        0.1469
     36 C          20.3078  -24.5274   16.4207 C.3     1  UNL1        0.1193
     37 C          20.4898  -25.6733   15.4234 C.3     1  UNL1        0.1583
     38 O          19.2509  -25.9267   14.7578 O.3     1  UNL1       -0.3802
     39 H          18.5768  -26.1707   15.4113 H       1  UNL1        0.2105
@<TRIPOS>BOND
     1     1     2    1
     2     2     3    1
     3     2    22    1
     4     3     4    2
     5     3     5   am
     6     5     7    1
     7     7    12   ar
     8     7     8   ar
     9     8     9   ar
    10     9    19   ar
    11     9    10   ar
    12    10    11   ar
    13    10    13   ar
    14    11    12   ar
    15    12    20    1
    16    20    21    1
    17    13    18   ar
    18    13    14   ar
    19    14    15   ar
    20    15    16   ar
    21    16    17   ar
    22    17    18   ar
    23    18    19   ar
    24    22    23    1
    25    23    24    2
    26    23    25    1
    27    25    30   ar
    28    25    26   ar
    29    26    27   ar
    30    27    28   ar
    31    27    31    1
    32    28    29   ar
    33    29    30   ar
    34    30    34    1
    35    34    36    1
    36    36    37    1
    37    37    38    1
    38    31    32    2
    39    31    33    2
    40     5     6    1
    41    34    35    1
    42    38    39    1
#	Name:			ZINC28879271
#	Creating user name:	trannguyen
#	Creation time:		Wed Dec  7 14:36:19 2022


#	Modifying user name:	trannguyen
#	Modification time:	Wed Dec  7 14:36:19 2022

@<TRIPOS>MOLECULE
ZINC28879271
 40 43 0 0 0
SMALL
GASTEIGER

@<TRIPOS>ATOM
      1 C          15.3526  -25.7879   15.6195 C.3     1  UNL1        0.0656
      2 C          16.5431  -25.9223   14.7052 C.ar    1  UNL1        0.0016
      3 C          17.6014  -26.7281   14.8857 C.ar    1  UNL1        0.0684
      4 N          18.4827  -26.5799   13.8495 N.ar    1  UNL1       -0.3522
      5 C          18.0007  -25.6515   12.9542 C.ar    1  UNL1        0.0563
      6 C          16.7618  -25.2031   13.4479 C.ar    1  UNL1        0.0134
      7 C          16.0316  -24.2504   12.7353 C.ar    1  UNL1        0.0012
      8 C          16.5233  -23.7601   11.5583 C.ar    1  UNL1        0.0001
      9 C          17.7431  -24.2016   11.0652 C.ar    1  UNL1        0.0015
     10 C          18.4838  -25.1359   11.7562 C.ar    1  UNL1        0.0170
     11 H          19.3345  -27.0650   13.7577 H       1  UNL1        0.1660
     12 C          12.0636  -27.9917   14.0094 C.ar    1  UNL1        0.0479
     13 C          11.8708  -26.7004   14.4835 C.ar    1  UNL1        0.0142
     14 C          12.9357  -25.9911   15.0031 C.ar    1  UNL1       -0.0026
     15 C          14.1929  -26.5649   15.0517 C.ar    1  UNL1       -0.0166
     16 C          14.3895  -27.8482   14.5755 C.ar    1  UNL1       -0.0026
     17 C          13.3278  -28.5653   14.0598 C.ar    1  UNL1        0.0142
     18 C          11.0519  -30.1737   13.4107 C.3     1  UNL1        0.1122
     19 N          10.9889  -28.7118   13.4828 N.pl3   1  UNL1       -0.3041
     20 C           9.7987  -28.0053   13.0026 C.3     1  UNL1        0.1122
     21 C          15.7070  -26.3380   17.0025 C.3     1  UNL1        0.0981
     22 N          16.6199  -25.4119   17.6772 N.am    1  UNL1       -0.3036
     23 C          16.6171  -25.3229   19.0219 C.2     1  UNL1        0.2242
     24 O          15.8588  -26.0095   19.6736 O.2     1  UNL1       -0.2750
     25 H          17.2355  -24.8546   17.1482 H       1  UNL1        0.1495
     26 C          17.5563  -24.3704   19.7160 C.3     1  UNL1        0.1062
     27 C          18.9814  -24.5986   19.2082 C.3     1  UNL1        0.0993
     28 N          19.5401  -23.3297   18.7348 N.am    1  UNL1       -0.3004
     29 C          19.5284  -23.0373   17.4192 C.2     1  UNL1        0.2459
     30 O          19.0542  -23.8264   16.6254 O.2     1  UNL1       -0.2701
     31 H          19.9242  -22.6906   19.3777 H       1  UNL1        0.1498
     32 C          20.0923  -21.7568   16.9414 C.ar    1  UNL1        0.0535
     33 C          19.7156  -20.5563   17.5456 C.ar    1  UNL1        0.0062
     34 C          20.2458  -19.3649   17.0952 C.ar    1  UNL1        0.0242
     35 C          21.1492  -19.3585   16.0472 C.ar    1  UNL1        0.1429
     36 C          21.5267  -20.5451   15.4439 C.ar    1  UNL1        0.0242
     37 C          21.0040  -21.7433   15.8847 C.ar    1  UNL1        0.0062
     38 N          21.7138  -18.0766   15.5689 N.pl3   1  UNL1        0.0577
     39 O          21.9979  -17.9374   14.3927 O.2     1  UNL1       -0.1261
     40 O          21.8943  -17.1609   16.3516 O.2     1  UNL1       -0.1261
@<TRIPOS>BOND
     1    18    19    1
     2    19    20    1
     3    19    12    1
     4    12    17   ar
     5    12    13   ar
     6    13    14   ar
     7    14    15   ar
     8    15    16   ar
     9    15     1    1
    10    16    17   ar
    11     1    21    1
    12     1     2    1
    13    21    22    1
    14    22    23   am
    15    23    24    2
    16    23    26    1
    17    26    27    1
    18    27    28    1
    19    28    29   am
    20    29    30    2
    21    29    32    1
    22    32    37   ar
    23    32    33   ar
    24    33    34   ar
    25    34    35   ar
    26    35    36   ar
    27    35    38    1
    28    36    37   ar
    29    38    39    2
    30    38    40    2
    31     2     6   ar
    32     2     3   ar
    33     3     4   ar
    34     4     5   ar
    35     5    10   ar
    36     5     6   ar
    37     6     7   ar
    38     7     8   ar
    39     8     9   ar
    40     9    10   ar
    41    22    25    1
    42    28    31    1
    43     4    11    1
#	Name:			ZINC28995812
#	Creating user name:	trannguyen
#	Creation time:		Wed Dec  7 14:36:20 2022


#	Modifying user name:	trannguyen
#	Modification time:	Wed Dec  7 14:36:20 2022

@<TRIPOS>MOLECULE
ZINC28995812
 35 37 0 0 0
SMALL
GASTEIGER

@<TRIPOS>ATOM
      1 C          20.5652  -22.7754   18.3408 C.3     1  UNL1        0.2930
      2 C          20.4861  -21.8622   17.1446 C.2     1  UNL1        0.2708
      3 O          19.5298  -21.1298   17.0030 O.2     1  UNL1       -0.2707
      4 N          21.4781  -21.8592   16.2322 N.am    1  UNL1       -0.2811
      5 H          22.2136  -22.5099   16.3027 H       1  UNL1        0.1550
      6 C          21.4626  -20.9315   15.1849 C.ar    1  UNL1        0.0467
      7 C          21.6702  -19.5833   15.4463 C.ar    1  UNL1        0.0144
      8 C          21.6599  -18.6710   14.4097 C.ar    1  UNL1        0.0013
      9 C          21.4433  -19.0985   13.1123 C.ar    1  UNL1       -0.0002
     10 C          21.2367  -20.4400   12.8488 C.ar    1  UNL1       -0.0027
     11 C          21.2453  -21.3575   13.8814 C.ar    1  UNL1       -0.0043
     12 C          21.0196  -22.8194   13.5932 C.3     1  UNL1        0.0539
     13 C          19.6129  -23.0213   13.0917 C.ar    1  UNL1       -0.0177
     14 C          19.3970  -23.5629   11.8384 C.ar    1  UNL1       -0.0039
     15 C          18.1066  -23.7525   11.3804 C.ar    1  UNL1       -0.0003
     16 C          17.0321  -23.3914   12.1717 C.ar    1  UNL1       -0.0000
     17 C          17.2482  -22.8445   13.4228 C.ar    1  UNL1       -0.0003
     18 C          18.5386  -22.6597   13.8829 C.ar    1  UNL1       -0.0039
     19 O          19.7429  -23.9494   18.1087 O.3     1  UNL1       -0.4353
     20 C          20.3190  -24.9816   17.4627 C.2     1  UNL1        0.3417
     21 O          21.3589  -25.4531   17.8770 O.2     1  UNL1       -0.2449
     22 C          17.7087  -26.1067   15.0020 C.ar    1  UNL1        0.0505
     23 C          18.5051  -26.5893   13.9701 C.ar    1  UNL1        0.0147
     24 C          19.8825  -26.5484   14.0766 C.ar    1  UNL1        0.0015
     25 C          20.4768  -26.0232   15.2060 C.ar    1  UNL1        0.0065
     26 C          19.6859  -25.5401   16.2503 C.ar    1  UNL1        0.0769
     27 C          18.2952  -25.5817   16.1425 C.ar    1  UNL1        0.0211
     28 C          15.6397  -27.2452   15.2928 C.2     1  UNL1        0.2252
     29 O          16.2452  -28.2248   15.6732 O.2     1  UNL1       -0.2748
     30 N          16.3144  -26.1506   14.8890 N.am    1  UNL1       -0.2839
     31 H          15.8264  -25.3819   14.5145 H       1  UNL1        0.1549
     32 C          13.6427  -28.1318   14.1201 C.3     1  UNL1        0.0091
     33 C          14.1328  -27.2520   15.2718 C.3     1  UNL1        0.0692
     34 C          13.6068  -27.8068   16.5970 C.3     1  UNL1        0.0091
     35 C          13.6191  -25.8240   15.0769 C.3     1  UNL1        0.0091
@<TRIPOS>BOND
     1    32    33    1
     2    33    34    1
     3    33    35    1
     4    33    28    1
     5    28    29    2
     6    28    30   am
     7    30    22    1
     8    22    27   ar
     9    22    23   ar
    10    23    24   ar
    11    24    25   ar
    12    25    26   ar
    13    26    27   ar
    14    26    20    1
    15    20    21    2
    16    20    19    1
    17    19     1    1
    18     1     2    1
    19     2     3    2
    20     2     4   am
    21     4     6    1
    22     6    11   ar
    23     6     7   ar
    24     7     8   ar
    25     8     9   ar
    26     9    10   ar
    27    10    11   ar
    28    11    12    1
    29    12    13    1
    30    13    18   ar
    31    13    14   ar
    32    14    15   ar
    33    15    16   ar
    34    16    17   ar
    35    17    18   ar
    36    30    31    1
    37     4     5    1
#	Name:			ZINC29062303
#	Creating user name:	trannguyen
#	Creation time:		Wed Dec  7 14:36:19 2022


#	Modifying user name:	trannguyen
#	Modification time:	Wed Dec  7 14:36:19 2022

@<TRIPOS>MOLECULE
ZINC29062303
 36 37 0 0 0
SMALL
GASTEIGER

@<TRIPOS>ATOM
      1 C          25.1506  -27.4666   10.3978 C.ar    1  UNL1        0.1026
      2 C          23.9957  -28.1457   10.6442 C.ar    1  UNL1       -0.0049
      3 C          23.1291  -27.7039   11.6520 C.ar    1  UNL1        0.0518
      4 C          21.8825  -28.2546   12.0764 C.ar    1  UNL1        0.1284
      5 N          21.2235  -27.6723   13.0645 N.ar    1  UNL1       -0.2126
      6 C          21.6733  -26.5878   13.6697 C.ar    1  UNL1        0.1853
      7 N          22.8182  -26.0307   13.3243 N.ar    1  UNL1       -0.2204
      8 C          23.5449  -26.5455   12.3539 C.ar    1  UNL1        0.1147
      9 S          25.0926  -26.1379   11.5882 S.2     1  UNL1       -0.0617
     10 N          21.3739  -29.3835   11.4673 N.pl3   1  UNL1       -0.3425
     11 C          23.6511  -29.3689    9.8342 C.3     1  UNL1        0.0319
     12 H          21.8695  -29.8120   10.7324 H       1  UNL1        0.1437
     13 H          20.5154  -29.7605   11.7676 H       1  UNL1        0.1437
     14 C          26.1858  -27.7556    9.4004 C.2     1  UNL1        0.3470
     15 O          27.1339  -28.4580    9.6942 O.2     1  UNL1       -0.2443
     16 O          26.0863  -27.2424    8.1571 O.3     1  UNL1       -0.4451
     17 C          24.8100  -26.3494    6.2852 C.3     1  UNL1        0.0513
     18 C          24.8069  -26.6671    7.7819 C.3     1  UNL1        0.2089
     19 C          20.8633  -25.9766   14.7838 C.3     1  UNL1        0.2732
     20 O          19.6648  -25.3688   14.2338 O.3     1  UNL1       -0.4389
     21 C          19.3571  -24.1338   14.6604 C.2     1  UNL1        0.3355
     22 O          18.6902  -23.9877   15.6572 O.2     1  UNL1       -0.2483
     23 C          19.8435  -22.9296   13.8959 C.3     1  UNL1        0.1748
     24 N          20.2711  -21.8928   14.8385 N.am    1  UNL1       -0.2624
     25 C          21.5629  -21.5107   14.8795 C.2     1  UNL1        0.4018
     26 O          22.3729  -22.0261   14.1348 O.2     1  UNL1       -0.2264
     27 H          19.6148  -21.4752   15.4420 H       1  UNL1        0.1532
     28 O          21.9559  -20.5579   15.7458 O.3     1  UNL1       -0.4419
     29 C          21.3553  -19.2442   15.5980 C.3     1  UNL1        0.1378
     30 C          20.1788  -19.1096   16.5669 C.3     1  UNL1        0.0437
     31 C          22.3981  -18.1688   15.9093 C.3     1  UNL1        0.0437
     32 C          20.8561  -19.0703   14.1623 C.3     1  UNL1        0.0437
     33 C          18.7102  -22.3884   13.0221 C.3     1  UNL1        0.0428
     34 C          18.5441  -23.2819   11.7911 C.3     1  UNL1        0.0599
     35 S          16.7818  -23.6140   11.5184 S.3     1  UNL1       -0.1393
     36 C          16.0904  -23.7170   13.1923 C.3     1  UNL1        0.0692
@<TRIPOS>BOND
     1    17    18    1
     2    18    16    1
     3    16    14    1
     4    14    15    2
     5    14     1    1
     6     1     9   ar
     7     1     2   ar
     8     2     3   ar
     9     2    11    1
    10     3     8   ar
    11     3     4   ar
    12     4     5   ar
    13     4    10    1
    14     5     6   ar
    15     6     7   ar
    16     6    19    1
    17     7     8   ar
    18     8     9   ar
    19    19    20    1
    20    20    21    1
    21    21    22    2
    22    21    23    1
    23    23    33    1
    24    23    24    1
    25    33    34    1
    26    34    35    1
    27    35    36    1
    28    24    25   am
    29    25    26    2
    30    25    28    1
    31    28    29    1
    32    29    30    1
    33    29    31    1
    34    29    32    1
    35    24    27    1
    36    10    12    1
    37    10    13    1
#	Name:			ZINC29096370
#	Creating user name:	trannguyen
#	Creation time:		Wed Dec  7 14:36:19 2022


#	Modifying user name:	trannguyen
#	Modification time:	Wed Dec  7 14:36:19 2022

@<TRIPOS>MOLECULE
ZINC29096370
 37 39 0 0 0
SMALL
GASTEIGER

@<TRIPOS>ATOM
      1 C          18.1147  -23.1002   12.6895 C.2     1  UNL1        0.2244
      2 O          18.7340  -22.7951   11.6923 O.2     1  UNL1       -0.2750
      3 N          18.7156  -23.0586   13.8951 N.am    1  UNL1       -0.2962
      4 H          18.2129  -23.3062   14.7046 H       1  UNL1        0.1501
      5 C          16.6731  -23.5257   12.5803 C.3     1  UNL1        0.1038
      6 C          16.5812  -25.0489   12.6916 C.3     1  UNL1        0.1010
      7 N          17.3868  -25.5050   13.8271 N.3     1  UNL1       -0.1789
      8 H          17.9253  -26.3081   13.5024 H       1  UNL1        0.1488
      9 S          16.6472  -25.9635   15.2360 S.O2    1  UNL1        0.0596
     10 O          15.9052  -24.8398   15.6897 O.2     1  UNL1       -0.1530
     11 O          16.0426  -27.2249   14.9855 O.2     1  UNL1       -0.1530
     12 C          20.9974  -26.9154   19.3073 C.3     1  UNL1        0.0303
     13 C          19.9107  -26.6778   18.2905 C.ar    1  UNL1       -0.0303
     14 C          18.9683  -25.6894   18.5043 C.ar    1  UNL1       -0.0288
     15 C          17.9716  -25.4714   17.5716 C.ar    1  UNL1       -0.0078
     16 C          17.9177  -26.2413   16.4248 C.ar    1  UNL1        0.1134
     17 C          18.8573  -27.2331   16.2134 C.ar    1  UNL1       -0.0078
     18 C          19.8566  -27.4481   17.1440 C.ar    1  UNL1       -0.0288
     19 C          20.8843  -28.5254   16.9108 C.3     1  UNL1        0.0304
     20 C          18.7950  -28.0765   14.9661 C.3     1  UNL1        0.0321
     21 C          16.9439  -24.3941   17.8048 C.3     1  UNL1        0.0321
     22 C          19.0273  -24.8496   19.7542 C.3     1  UNL1        0.0304
     23 C          20.1170  -22.6450   14.0012 C.3     1  UNL1        0.1518
     24 C          20.3363  -21.9467   15.3186 C.ar    1  UNL1        0.0057
     25 C          19.8623  -22.5128   16.4878 C.ar    1  UNL1       -0.0021
     26 C          20.0622  -21.8750   17.6980 C.ar    1  UNL1        0.0029
     27 C          20.7315  -20.6671   17.7413 C.ar    1  UNL1        0.0369
     28 C          21.2126  -20.0998   16.5704 C.ar    1  UNL1        0.1385
     29 C          21.0110  -20.7422   15.3572 C.ar    1  UNL1        0.0346
     30 O          21.8758  -18.9142   16.6109 O.3     1  UNL1       -0.4714
     31 C          22.1298  -18.2699   15.3610 C.3     1  UNL1        0.2525
     32 C          21.0064  -23.8589   13.9219 C.ar    1  UNL1        0.1428
     33 N          20.6579  -25.0786   14.2287 N.ar    1  UNL1       -0.2273
     34 C          21.7014  -25.8987   14.0350 C.ar    1  UNL1        0.1189
     35 C          22.7382  -25.1580   13.5992 C.ar    1  UNL1        0.0978
     36 N          22.2979  -23.8640   13.5273 N.ar    1  UNL1       -0.3101
     37 C          23.0813  -22.7016   13.1012 C.3     1  UNL1        0.1317
@<TRIPOS>BOND
     1    12    13    1
     2    13    18   ar
     3    13    14   ar
     4    14    15   ar
     5    14    22    1
     6    15    16   ar
     7    15    21    1
     8    16    17   ar
     9    16     9    1
    10    17    18   ar
    11    17    20    1
    12    18    19    1
    13     9    10    2
    14     9    11    2
    15     9     7    1
    16     7     6    1
    17     6     5    1
    18     5     1    1
    19     1     2    2
    20     1     3   am
    21     3    23    1
    22    23    24    1
    23    23    32    1
    24    24    29   ar
    25    24    25   ar
    26    25    26   ar
    27    26    27   ar
    28    27    28   ar
    29    28    29   ar
    30    28    30    1
    31    30    31    1
    32    32    36   ar
    33    32    33   ar
    34    33    34   ar
    35    34    35   ar
    36    35    36   ar
    37    36    37    1
    38     7     8    1
    39     3     4    1
#	Name:			ZINC29290068
#	Creating user name:	trannguyen
#	Creation time:		Wed Dec  7 14:36:19 2022


#	Modifying user name:	trannguyen
#	Modification time:	Wed Dec  7 14:36:19 2022

@<TRIPOS>MOLECULE
ZINC29290068
 39 42 0 0 0
SMALL
GASTEIGER

@<TRIPOS>ATOM
      1 C          15.6277  -25.6830   13.0679 C.3     1  UNL1        0.2927
      2 N          16.9333  -23.5946   13.2961 N.am    1  UNL1       -0.3013
      3 C          16.7486  -24.7649   12.6537 C.2     1  UNL1        0.2671
      4 O          17.4844  -25.0791   11.7423 O.2     1  UNL1       -0.2711
      5 H          16.3360  -23.3395   14.0359 H       1  UNL1        0.1495
      6 C          18.0229  -22.7019   12.8934 C.3     1  UNL1        0.0902
      7 C          19.0742  -22.6474   14.0036 C.3     1  UNL1        0.0300
      8 C          20.3330  -21.9528   13.4803 C.3     1  UNL1        0.0462
      9 C          21.3255  -18.6834   16.0440 C.ar    1  UNL1       -0.0000
     10 C          21.3573  -18.5200   14.6718 C.ar    1  UNL1       -0.0003
     11 C          21.0364  -19.5780   13.8421 C.ar    1  UNL1       -0.0040
     12 C          20.6832  -20.7993   14.3847 C.ar    1  UNL1       -0.0184
     13 C          20.6458  -20.9611   15.7571 C.ar    1  UNL1       -0.0040
     14 C          20.9722  -19.9046   16.5867 C.ar    1  UNL1       -0.0003
     15 C          21.4752  -22.9356   13.4544 C.ar    1  UNL1       -0.0184
     16 C          21.2697  -24.2445   13.8485 C.ar    1  UNL1       -0.0040
     17 C          22.3161  -25.1474   13.8198 C.ar    1  UNL1       -0.0003
     18 C          23.5706  -24.7385   13.4074 C.ar    1  UNL1       -0.0000
     19 C          23.7774  -23.4281   13.0188 C.ar    1  UNL1       -0.0003
     20 C          22.7296  -22.5268   13.0421 C.ar    1  UNL1       -0.0040
     21 O          14.7322  -24.9813   13.9327 O.3     1  UNL1       -0.4345
     22 C          14.4937  -25.5291   15.1425 C.2     1  UNL1        0.3570
     23 O          13.3593  -25.8331   15.4597 O.2     1  UNL1       -0.2435
     24 C          15.5655  -25.7505   16.0444 C.2     1  UNL1        0.1538
     25 N          16.5626  -24.9457   16.2336 N.2     1  UNL1       -0.1754
     26 N          17.4853  -25.3987   17.1743 N.pl3   1  UNL1       -0.2041
     27 C          17.0334  -26.6966   17.6994 C.3     1  UNL1        0.1779
     28 C          15.7183  -26.9594   16.9396 C.3     1  UNL1        0.0853
     29 C          18.6467  -24.7271   17.5603 C.ar    1  UNL1        0.0695
     30 C          19.8911  -25.2066   17.1694 C.ar    1  UNL1        0.0163
     31 C          21.0375  -24.5371   17.5491 C.ar    1  UNL1        0.0013
     32 C          20.9489  -23.3968   18.3266 C.ar    1  UNL1        0.0001
     33 C          19.7124  -22.9193   18.7215 C.ar    1  UNL1        0.0013
     34 C          18.5615  -23.5808   18.3412 C.ar    1  UNL1        0.0163
     35 C          16.7835  -26.6099   19.1831 C.2     1  UNL1        0.2398
     36 O          15.8428  -25.9701   19.6032 O.2     1  UNL1       -0.2735
     37 N          17.6055  -27.2434   20.0430 N.am    1  UNL1       -0.3274
     38 H          18.3691  -27.7628   19.7019 H       1  UNL1        0.1450
     39 H          17.4422  -27.1868   21.0122 H       1  UNL1        0.1450
@<TRIPOS>BOND
     1     9    14   ar
     2     9    10   ar
     3    10    11   ar
     4    11    12   ar
     5    12    13   ar
     6    12     8    1
     7    13    14   ar
     8     8     7    1
     9     8    15    1
    10     7     6    1
    11     6     2    1
    12     2     3   am
    13     3     4    2
    14     3     1    1
    15     1    21    1
    16    21    22    1
    17    22    23    2
    18    22    24    1
    19    24    28    1
    20    24    25    2
    21    25    26    1
    22    26    27    1
    23    26    29    1
    24    27    28    1
    25    27    35    1
    26    35    36    2
    27    35    37   am
    28    29    34   ar
    29    29    30   ar
    30    30    31   ar
    31    31    32   ar
    32    32    33   ar
    33    33    34   ar
    34    15    20   ar
    35    15    16   ar
    36    16    17   ar
    37    17    18   ar
    38    18    19   ar
    39    19    20   ar
    40     2     5    1
    41    37    38    1
    42    37    39    1
#	Name:			ZINC29331033
#	Creating user name:	trannguyen
#	Creation time:		Wed Dec  7 14:36:19 2022


#	Modifying user name:	trannguyen
#	Modification time:	Wed Dec  7 14:36:19 2022

@<TRIPOS>MOLECULE
ZINC29331033
 34 36 0 0 0
SMALL
GASTEIGER

@<TRIPOS>ATOM
      1 N          16.5566  -25.4070   18.4887 N.am    1  UNL1       -0.2868
      2 C          17.8720  -25.1871   18.6837 C.2     1  UNL1        0.3012
      3 O          18.6417  -26.1258   18.7522 O.2     1  UNL1       -0.2528
      4 N          18.3341  -23.9266   18.8028 N.am    1  UNL1       -0.2848
      5 H          15.9334  -24.6469   18.4332 H       1  UNL1        0.1512
      6 H          17.7108  -23.1665   18.7474 H       1  UNL1        0.1513
      7 C          16.0543  -26.7771   18.3592 C.3     1  UNL1        0.0957
      8 C          15.2711  -27.1543   19.6182 C.3     1  UNL1        0.0262
      9 C          13.4820  -27.0422   14.9532 C.ar    1  UNL1        0.1722
     10 C          13.3330  -27.9280   16.0081 C.ar    1  UNL1        0.0398
     11 C          14.1698  -27.8433   17.1052 C.ar    1  UNL1        0.0006
     12 C          15.1489  -26.8688   17.1580 C.ar    1  UNL1       -0.0012
     13 C          15.3029  -25.9818   16.1089 C.ar    1  UNL1        0.0374
     14 C          14.4712  -26.0648   15.0038 C.ar    1  UNL1        0.1719
     15 O          12.6635  -27.1279   13.8705 O.3     1  UNL1       -0.4724
     16 C          11.2642  -26.9497   14.0993 C.3     1  UNL1        0.2056
     17 C          11.1146  -29.2458   13.1254 C.3     1  UNL1        0.0040
     18 C          10.4734  -27.8570   13.1546 C.3     1  UNL1        0.0473
     19 O          14.6211  -25.1927   13.9710 O.3     1  UNL1       -0.4724
     20 C          15.8336  -25.2792   13.2199 C.3     1  UNL1        0.2056
     21 C          16.0955  -23.9447   12.5189 C.3     1  UNL1        0.0473
     22 C          17.2781  -23.2408   13.1873 C.3     1  UNL1        0.0040
     23 C          19.7638  -23.6876   19.0148 C.3     1  UNL1        0.1192
     24 C          20.3050  -22.8465   17.8875 C.ar    1  UNL1        0.0167
     25 C          20.1337  -21.4683   17.8960 C.ar    1  UNL1        0.0018
     26 C          20.6453  -20.7332   16.8422 C.ar    1  UNL1        0.0341
     27 C          21.3104  -21.3955   15.8150 C.ar    1  UNL1        0.1317
     28 N          21.4533  -22.7114   15.8434 N.ar    1  UNL1       -0.2294
     29 C          20.9755  -23.4380   16.8361 C.ar    1  UNL1        0.0977
     30 N          21.8292  -20.6691   14.7495 N.pl3   1  UNL1       -0.2932
     31 C          20.9368  -20.7508   13.5649 C.3     1  UNL1        0.0922
     32 C          21.3588  -19.5240   12.7178 C.3     1  UNL1        0.0232
     33 C          21.6461  -18.4468   13.7889 C.3     1  UNL1        0.0232
     34 C          21.9243  -19.2317   15.0841 C.3     1  UNL1        0.0922
@<TRIPOS>BOND
     1    17    18    1
     2    18    16    1
     3    16    15    1
     4    15     9    1
     5     9    14   ar
     6     9    10   ar
     7    10    11   ar
     8    11    12   ar
     9    12    13   ar
    10    12     7    1
    11    13    14   ar
    12    14    19    1
    13    19    20    1
    14    20    21    1
    15    21    22    1
    16     7     8    1
    17     7     1    1
    18     1     2   am
    19     2     3    2
    20     2     4   am
    21     4    23    1
    22    23    24    1
    23    24    29   ar
    24    24    25   ar
    25    25    26   ar
    26    26    27   ar
    27    27    28   ar
    28    27    30    1
    29    28    29   ar
    30    30    34    1
    31    30    31    1
    32    31    32    1
    33    32    33    1
    34    33    34    1
    35     1     5    1
    36     4     6    1
#	Name:			ZINC29352934
#	Creating user name:	trannguyen
#	Creation time:		Wed Dec  7 14:36:20 2022


#	Modifying user name:	trannguyen
#	Modification time:	Wed Dec  7 14:36:20 2022

@<TRIPOS>MOLECULE
ZINC29352934
 32 35 0 0 0
SMALL
GASTEIGER

@<TRIPOS>ATOM
      1 C          16.6002  -25.5579   15.1319 C.3     1  UNL1        0.0096
      2 C          17.6690  -25.5819   14.0373 C.3     1  UNL1        0.0025
      3 C          18.2275  -24.1713   13.8389 C.3     1  UNL1        0.0246
      4 C          19.7560  -24.2282   13.8035 C.3     1  UNL1        0.1077
      5 C          21.7725  -18.4280   13.3854 C.ar    1  UNL1        0.0000
      6 C          22.0770  -18.2892   14.7309 C.ar    1  UNL1       -0.0018
      7 C          21.8666  -19.3319   15.6113 C.ar    1  UNL1       -0.0238
      8 C          21.3458  -20.5301   15.1470 C.ar    1  UNL1       -0.1133
      9 C          21.0372  -20.6719   13.7829 C.ar    1  UNL1        0.0340
     10 C          21.2542  -19.6125   12.9053 C.ar    1  UNL1        0.0029
     11 C          20.4851  -21.9591   13.3231 C.ar    1  UNL1        0.2580
     12 O          20.2010  -22.1338   12.1538 O.2     1  UNL1       -0.2671
     13 N          20.3027  -22.9392   14.2344 N.ar    1  UNL1       -0.3103
     14 C          20.6132  -22.7549   15.5271 C.ar    1  UNL1       -0.0162
     15 S          20.3546  -24.0440   16.6237 S.2     1  UNL1       -0.0582
     16 N          21.1187  -21.6019   15.9978 N.ar    1  UNL1       -0.6386
     17 C          15.2885  -25.0247   14.5523 C.3     1  UNL1        0.0854
     18 C          14.2288  -26.0924   14.6424 C.2     1  UNL1        0.2275
     19 O          14.5278  -27.2580   14.4905 O.2     1  UNL1       -0.2747
     20 N          12.9488  -25.7521   14.8916 N.am    1  UNL1       -0.2641
     21 H          12.7060  -24.8059   15.0147 H       1  UNL1        0.1567
     22 C          11.9717  -26.7364   14.9746 C.ar    1  UNL1        0.1656
     23 N          11.5671  -27.4234   16.0261 N.ar    1  UNL1       -0.2225
     24 C          10.6041  -28.3362   15.9238 C.ar    1  UNL1        0.1053
     25 C          10.0340  -28.5720   14.7021 C.ar    1  UNL1        0.0587
     26 S          10.9364  -27.4120   13.6839 S.2     1  UNL1       -0.0508
     27 C          10.1595  -29.0915   17.1151 C.ar    1  UNL1        0.0751
     28 C          10.2911  -28.6942   18.4114 C.ar    1  UNL1        0.0200
     29 C           9.7377  -29.7037   19.2177 C.ar    1  UNL1        0.0200
     30 C           9.2876  -30.6799   18.4015 C.ar    1  UNL1        0.0725
     31 N           9.5364  -30.3127   17.1101 N.ar    1  UNL1       -0.3508
     32 H           9.3068  -30.8372   16.3093 H       1  UNL1        0.1660
@<TRIPOS>UNITY_ATOM_ATTR
16 1
charge -1
@<TRIPOS>BOND
     1     5    10   ar
     2     5     6   ar
     3     6     7   ar
     4     7     8   ar
     5     8    16   ar
     6     8     9   ar
     7     9    10   ar
     8     9    11   ar
     9    11    12    2
    10    11    13   ar
    11    13    14   ar
    12    13     4    1
    13    14    15    2
    14    14    16   ar
    15     4     3    1
    16     3     2    1
    17     2     1    1
    18     1    17    1
    19    17    18    1
    20    18    19    2
    21    18    20   am
    22    20    22    1
    23    22    26   ar
    24    22    23   ar
    25    23    24   ar
    26    24    25   ar
    27    24    27    1
    28    25    26   ar
    29    27    31   ar
    30    27    28   ar
    31    28    29   ar
    32    29    30   ar
    33    30    31   ar
    34    20    21    1
    35    31    32    1
#	Name:			ZINC29357326
#	Creating user name:	trannguyen
#	Creation time:		Wed Dec  7 14:36:19 2022


#	Modifying user name:	trannguyen
#	Modification time:	Wed Dec  7 14:36:19 2022

@<TRIPOS>MOLECULE
ZINC29357326
 36 38 0 0 0
SMALL
GASTEIGER

@<TRIPOS>ATOM
      1 C          12.0598  -26.9030   14.5136 C.ar    1  UNL1        0.2096
      2 N          11.5828  -25.6999   14.7337 N.ar    1  UNL1       -0.1207
      3 N          12.5384  -24.9038   15.0577 N.ar    1  UNL1       -0.1274
      4 C          13.6724  -25.5454   15.0639 C.ar    1  UNL1        0.2042
      5 N          13.4077  -26.8433   14.7233 N.ar    1  UNL1       -0.2242
      6 N          14.3058  -27.8667   14.6131 N.pl3   1  UNL1       -0.2947
      7 H          13.9978  -28.7666   14.3591 H       1  UNL1        0.1627
      8 H          15.2609  -27.7043   14.7876 H       1  UNL1        0.1627
      9 S          11.1346  -28.3272   14.0441 S.3     1  UNL1       -0.0644
     10 C          10.0461  -28.4829   15.4817 C.3     1  UNL1        0.1502
     11 N          11.1858  -27.2616   17.3060 N.am    1  UNL1       -0.2781
     12 C          10.8707  -28.4447   16.7425 C.2     1  UNL1        0.2379
     13 O          11.2507  -29.4785   17.2501 O.2     1  UNL1       -0.2738
     14 H          10.8775  -26.4224   16.8939 H       1  UNL1        0.1553
     15 C          11.5397  -26.8875   19.7526 C.ar    1  UNL1        0.0958
     16 C          12.5485  -26.9396   20.7844 C.ar    1  UNL1        0.0152
     17 C          13.7894  -27.3008   20.4124 C.ar    1  UNL1        0.0369
     18 S          13.6264  -27.5863   18.6623 S.2     1  UNL1       -0.0715
     19 C          11.9441  -27.2265   18.4657 C.ar    1  UNL1        0.0870
     20 C          10.1586  -26.5001   20.0471 C.2     1  UNL1        0.3429
     21 O           9.7157  -25.4524   19.6159 O.2     1  UNL1       -0.2448
     22 O           9.3775  -27.3050   20.7963 O.3     1  UNL1       -0.4454
     23 C           8.2988  -29.4331   21.2846 C.3     1  UNL1        0.0513
     24 C           9.0284  -28.5964   20.2317 C.3     1  UNL1        0.2089
     25 C          15.0245  -24.9663   15.3918 C.3     1  UNL1        0.2719
     26 O          15.8924  -25.1158   14.2665 O.3     1  UNL1       -0.4672
     27 C          17.0379  -24.3845   14.2694 C.ar    1  UNL1        0.1392
     28 C          18.0190  -24.6338   15.2180 C.ar    1  UNL1        0.0366
     29 C          19.1852  -23.8932   15.2148 C.ar    1  UNL1       -0.0012
     30 C          19.3696  -22.8960   14.2751 C.ar    1  UNL1       -0.0226
     31 C          18.3909  -22.6417   13.3321 C.ar    1  UNL1       -0.0012
     32 C          17.2256  -23.3837   13.3272 C.ar    1  UNL1        0.0366
     33 C          20.6399  -22.0851   14.2782 C.3     1  UNL1        0.0189
     34 C          21.8295  -23.0016   14.5710 C.3     1  UNL1        0.0044
     35 C          20.8279  -21.4267   12.9100 C.3     1  UNL1        0.0044
     36 C          20.5518  -21.0034   15.3567 C.3     1  UNL1        0.0044
@<TRIPOS>BOND
     1    23    24    1
     2    24    22    1
     3    22    20    1
     4    20    21    2
     5    20    15    1
     6    15    19   ar
     7    15    16   ar
     8    16    17   ar
     9    17    18   ar
    10    18    19   ar
    11    19    11    1
    12    11    12   am
    13    12    13    2
    14    12    10    1
    15    10     9    1
    16     9     1    1
    17     1     5   ar
    18     1     2   ar
    19     2     3   ar
    20     3     4   ar
    21     4     5   ar
    22     4    25    1
    23     5     6    1
    24    25    26    1
    25    26    27    1
    26    27    32   ar
    27    27    28   ar
    28    28    29   ar
    29    29    30   ar
    30    30    31   ar
    31    30    33    1
    32    31    32   ar
    33    33    34    1
    34    33    35    1
    35    33    36    1
    36    11    14    1
    37     6     7    1
    38     6     8    1
#	Name:			ZINC29374637
#	Creating user name:	trannguyen
#	Creation time:		Wed Dec  7 14:36:20 2022


#	Modifying user name:	trannguyen
#	Modification time:	Wed Dec  7 14:36:20 2022

@<TRIPOS>MOLECULE
ZINC29374637
 30 31 0 0 0
SMALL
GASTEIGER

@<TRIPOS>ATOM
      1 C          18.7354  -27.3079   14.1538 C.3     1  UNL1        0.0214
      2 C          20.2407  -27.0709   14.2912 C.3     1  UNL1        0.1245
      3 C          20.4806  -25.8011   15.0665 C.2     1  UNL1        0.2358
      4 O          21.5198  -25.6480   15.6730 O.2     1  UNL1       -0.2739
      5 N          19.5405  -24.8356   15.0859 N.am    1  UNL1       -0.2828
      6 H          18.7259  -24.9306   14.5413 H       1  UNL1        0.1549
      7 C          19.7225  -23.6962   15.8813 C.ar    1  UNL1        0.0560
      8 C          19.4870  -23.7563   17.2463 C.ar    1  UNL1        0.0152
      9 C          19.6722  -22.6325   18.0300 C.ar    1  UNL1        0.0013
     10 C          20.0823  -21.4432   17.4554 C.ar    1  UNL1        0.0006
     11 C          20.3142  -21.3723   16.0948 C.ar    1  UNL1        0.0074
     12 C          20.1359  -22.4966   15.3011 C.ar    1  UNL1        0.0390
     13 S          20.4301  -22.4093   13.5661 S.3     1  UNL1       -0.1076
     14 C          20.2221  -20.6506   13.1735 C.3     1  UNL1        0.0881
     15 C          21.5705  -19.9782   13.1500 C.2     1  UNL1       -0.0141
     16 C          21.6507  -18.6749   13.0444 C.2     1  UNL1       -0.0040
     17 S          20.9824  -26.9220   12.6424 S.3     1  UNL1       -0.1237
     18 C          21.4787  -28.6172   12.2297 C.3     1  UNL1        0.1236
     19 C          22.4585  -28.5892   11.0850 C.ar    1  UNL1        0.1558
     20 N          22.4733  -29.5760   10.2060 N.ar    1  UNL1       -0.1981
     21 C          23.3372  -29.5548    9.1936 C.ar    1  UNL1        0.2172
     22 N          24.1852  -28.5397    9.0674 N.ar    1  UNL1       -0.1811
     23 C          24.1672  -27.5497    9.9530 C.ar    1  UNL1        0.2237
     24 N          23.3002  -27.5780   10.9628 N.ar    1  UNL1       -0.1977
     25 N          23.3517  -30.5853    8.2760 N.pl3   1  UNL1       -0.3274
     26 H          22.7230  -31.3371    8.3701 H       1  UNL1        0.1452
     27 H          23.9907  -30.5688    7.5273 H       1  UNL1        0.1452
     28 N          25.0497  -26.4961    9.8295 N.pl3   1  UNL1       -0.2746
     29 C          25.9475  -26.4241    8.6740 C.3     1  UNL1        0.1151
     30 C          25.0890  -25.4496   10.8539 C.3     1  UNL1        0.1151
@<TRIPOS>BOND
     1     1     2    1
     2     2     3    1
     3     2    17    1
     4     3     4    2
     5     3     5   am
     6     5     7    1
     7     7    12   ar
     8     7     8   ar
     9     8     9   ar
    10     9    10   ar
    11    10    11   ar
    12    11    12   ar
    13    12    13    1
    14    13    14    1
    15    14    15    1
    16    15    16    2
    17    17    18    1
    18    18    19    1
    19    19    24   ar
    20    19    20   ar
    21    20    21   ar
    22    21    22   ar
    23    21    25    1
    24    22    23   ar
    25    23    24   ar
    26    23    28    1
    27    28    29    1
    28    28    30    1
    29     5     6    1
    30    25    26    1
    31    25    27    1
#	Name:			ZINC29424312
#	Creating user name:	trannguyen
#	Creation time:		Wed Dec  7 14:36:20 2022


#	Modifying user name:	trannguyen
#	Modification time:	Wed Dec  7 14:36:20 2022

@<TRIPOS>MOLECULE
ZINC29424312
 35 38 0 0 0
SMALL
GASTEIGER

@<TRIPOS>ATOM
      1 N          12.9132  -27.1641   14.7667 N.am    1  UNL1       -0.2785
      2 C          12.9845  -25.8340   14.9723 C.2     1  UNL1        0.2708
      3 O          11.9683  -25.1748   15.0352 O.2     1  UNL1       -0.2707
      4 H          13.7320  -27.7102   14.7885 H       1  UNL1        0.1551
      5 C          11.1106  -28.6177   15.4731 C.ar    1  UNL1        0.1586
      6 C           9.8821  -29.2101   15.2273 C.ar    1  UNL1        0.0388
      7 C           9.2234  -28.9676   14.0364 C.ar    1  UNL1        0.0032
      8 C           9.7844  -28.1301   13.0897 C.ar    1  UNL1        0.0015
      9 C          11.0066  -27.5312   13.3292 C.ar    1  UNL1        0.0178
     10 C          11.6737  -27.7697   14.5219 C.ar    1  UNL1        0.0854
     11 O          11.7622  -28.8595   16.6415 O.3     1  UNL1       -0.4522
     12 C           9.2709  -27.2738   21.4375 C.3     1  UNL1        0.0310
     13 C           9.9375  -27.6981   20.1542 C.ar    1  UNL1       -0.0217
     14 C           9.7395  -28.9754   19.6633 C.ar    1  UNL1       -0.0011
     15 C          10.3492  -29.3669   18.4872 C.ar    1  UNL1        0.0372
     16 C          11.1610  -28.4769   17.7984 C.ar    1  UNL1        0.1453
     17 C          11.3621  -27.1973   18.2960 C.ar    1  UNL1        0.0372
     18 C          10.7454  -26.8090   19.4696 C.ar    1  UNL1       -0.0011
     19 C          14.3267  -25.1659   15.1239 C.3     1  UNL1        0.2930
     20 O          15.2840  -25.7946   14.2314 O.3     1  UNL1       -0.4353
     21 C          16.5729  -25.4239   14.3578 C.2     1  UNL1        0.3417
     22 O          17.2042  -25.7482   15.3435 O.2     1  UNL1       -0.2449
     23 C          17.2187  -24.6232   13.2974 C.ar    1  UNL1        0.0769
     24 C          17.0578  -24.9771   11.9559 C.ar    1  UNL1        0.0065
     25 C          17.6616  -24.2272   10.9676 C.ar    1  UNL1        0.0015
     26 C          18.4267  -23.1246   11.3000 C.ar    1  UNL1        0.0147
     27 C          18.5973  -22.7671   12.6319 C.ar    1  UNL1        0.0505
     28 C          17.9908  -23.5106   13.6324 C.ar    1  UNL1        0.0211
     29 N          19.3777  -21.6534   12.9631 N.am    1  UNL1       -0.2839
     30 C          20.6897  -21.8055   13.2309 C.2     1  UNL1        0.2256
     31 O          21.2159  -22.8891   13.0891 O.2     1  UNL1       -0.2748
     32 H          18.9681  -20.7590   13.0004 H       1  UNL1        0.1549
     33 C          21.5031  -20.6293   13.7063 C.3     1  UNL1        0.0768
     34 C          20.7432  -19.3762   14.1456 C.3     1  UNL1        0.0096
     35 C          21.5173  -19.3782   12.8259 C.3     1  UNL1        0.0096
@<TRIPOS>BOND
     1    12    13    1
     2    13    18   ar
     3    13    14   ar
     4    14    15   ar
     5    15    16   ar
     6    16    17   ar
     7    16    11    1
     8    17    18   ar
     9    11     5    1
    10     5    10   ar
    11     5     6   ar
    12     6     7   ar
    13     7     8   ar
    14     8     9   ar
    15     9    10   ar
    16    10     1    1
    17     1     2   am
    18     2     3    2
    19     2    19    1
    20    19    20    1
    21    20    21    1
    22    21    22    2
    23    21    23    1
    24    23    28   ar
    25    23    24   ar
    26    24    25   ar
    27    25    26   ar
    28    26    27   ar
    29    27    28   ar
    30    27    29    1
    31    29    30   am
    32    30    31    2
    33    30    33    1
    34    33    35    1
    35    33    34    1
    36    34    35    1
    37     1     4    1
    38    29    32    1
#	Name:			ZINC29430982
#	Creating user name:	trannguyen
#	Creation time:		Wed Dec  7 14:36:20 2022


#	Modifying user name:	trannguyen
#	Modification time:	Wed Dec  7 14:36:20 2022

@<TRIPOS>MOLECULE
ZINC29430982
 33 35 0 0 0
SMALL
GASTEIGER

@<TRIPOS>ATOM
      1 C          16.9958  -24.9867   13.4303 C.ar    1  UNL1        0.0590
      2 C          16.3264  -24.0422   12.6477 C.ar    1  UNL1        0.0050
      3 C          16.7849  -23.7490   11.3824 C.ar    1  UNL1        0.0002
      4 C          17.9090  -24.3857   10.8790 C.ar    1  UNL1        0.0005
      5 C          18.5843  -25.3164   11.6404 C.ar    1  UNL1        0.0063
      6 C          18.1338  -25.6303   12.9178 C.ar    1  UNL1        0.0300
      7 N          17.0797  -24.7213   15.8589 N.am    1  UNL1       -0.3009
      8 C          16.5110  -25.3049   14.7854 C.2     1  UNL1        0.2463
      9 O          15.5977  -26.0939   14.9347 O.2     1  UNL1       -0.2701
     10 H          17.8190  -24.0825   15.7380 H       1  UNL1        0.1497
     11 C          16.5978  -25.0376   17.2057 C.3     1  UNL1        0.0896
     12 C          17.7703  -25.0031   18.1881 C.3     1  UNL1        0.0196
     13 C          18.8242  -26.0264   17.7604 C.3     1  UNL1        0.0017
     14 C          18.6853  -27.2887   18.6137 C.3     1  UNL1        0.0001
     15 C          18.3901  -23.6044   18.1935 C.3     1  UNL1        0.0017
     16 C          19.8037  -23.6751   18.7746 C.3     1  UNL1        0.0001
     17 C          19.7134  -21.5116   17.5281 C.3     1  UNL1        0.0000
     18 C          20.6325  -22.5036   18.2439 C.3     1  UNL1        0.0000
     19 S          18.9903  -26.8238   13.8907 S.3     1  UNL1       -0.1037
     20 C          20.6471  -26.1146   14.0971 C.3     1  UNL1        0.1472
     21 C          20.5369  -24.6209   14.2634 C.2     1  UNL1        0.2375
     22 O          19.8828  -24.1587   15.1743 O.2     1  UNL1       -0.2738
     23 N          21.1653  -23.7985   13.4000 N.am    1  UNL1       -0.2831
     24 H          21.6330  -24.1705   12.6177 H       1  UNL1        0.1549
     25 C          21.1527  -22.4143   13.6158 C.ar    1  UNL1        0.0536
     26 C          20.3055  -21.6034   12.8725 C.ar    1  UNL1        0.0180
     27 C          20.2917  -20.2381   13.0845 C.ar    1  UNL1        0.0415
     28 C          21.1230  -19.6743   14.0390 C.ar    1  UNL1        0.1765
     29 C          21.9739  -20.4852   14.7862 C.ar    1  UNL1        0.1777
     30 C          21.9869  -21.8535   14.5730 C.ar    1  UNL1        0.0548
     31 O          22.6808  -19.6980   15.6489 O.3     1  UNL1       -0.4346
     32 C          21.9624  -18.4517   15.7091 C.3     1  UNL1        0.4294
     33 O          21.2973  -18.3784   14.4342 O.3     1  UNL1       -0.4346
@<TRIPOS>BOND
     1    17    18    1
     2    18    16    1
     3    16    15    1
     4    15    12    1
     5    12    13    1
     6    12    11    1
     7    13    14    1
     8    11     7    1
     9     7     8   am
    10     8     9    2
    11     8     1    1
    12     1     6   ar
    13     1     2   ar
    14     2     3   ar
    15     3     4   ar
    16     4     5   ar
    17     5     6   ar
    18     6    19    1
    19    19    20    1
    20    20    21    1
    21    21    22    2
    22    21    23   am
    23    23    25    1
    24    25    30   ar
    25    25    26   ar
    26    26    27   ar
    27    27    28   ar
    28    28    33    1
    29    28    29   ar
    30    29    30   ar
    31    29    31    1
    32    31    32    1
    33    32    33    1
    34     7    10    1
    35    23    24    1
#	Name:			ZINC29464726
#	Creating user name:	trannguyen
#	Creation time:		Wed Dec  7 14:36:19 2022


#	Modifying user name:	trannguyen
#	Modification time:	Wed Dec  7 14:36:19 2022

@<TRIPOS>MOLECULE
ZINC29464726
 48 51 0 0 0
SMALL
GASTEIGER

@<TRIPOS>ATOM
      1 C          15.5675  -26.1302   15.2784 C.ar    1  UNL1        0.1310
      2 C          15.9466  -24.9690   15.9271 C.ar    1  UNL1        0.0218
      3 C          17.2851  -24.6875   16.1162 C.ar    1  UNL1        0.0174
      4 C          18.2518  -25.5666   15.6440 C.ar    1  UNL1        0.0674
      5 C          17.8676  -26.7317   14.9930 C.ar    1  UNL1        0.1572
      6 C          16.5268  -27.0100   14.8122 C.ar    1  UNL1        0.0458
      7 S          13.8583  -26.4894   15.0460 S.O2    1  UNL1        0.1032
      8 O          13.2149  -25.2500   14.7831 O.2     1  UNL1       -0.1462
      9 O          13.7926  -27.5876   14.1468 O.2     1  UNL1       -0.1462
     10 C          11.9560  -27.2965   16.6337 C.2     1  UNL1        0.2402
     11 O          11.2024  -27.1405   15.6921 O.2     1  UNL1       -0.4911
     12 N          13.2699  -27.0296   16.4967 N.2     1  UNL1       -0.0907
     13 H          10.2889  -27.3261   15.7874 H       1  UNL1        0.2938
     14 C          10.4487  -28.6821   20.3539 C.ar    1  UNL1        0.0478
     15 C          10.6509  -29.5793   19.3088 C.ar    1  UNL1        0.0147
     16 C          11.1391  -29.1334   18.1020 C.ar    1  UNL1        0.0059
     17 C          11.4318  -27.7778   17.9260 C.ar    1  UNL1        0.0544
     18 C          11.2324  -26.8801   18.9790 C.ar    1  UNL1        0.0059
     19 C          10.7389  -27.3315   20.1817 C.ar    1  UNL1        0.0147
     20 C           8.1625  -29.6208   25.4218 C.3     1  UNL1        0.0001
     21 C           8.6354  -28.9447   24.1333 C.3     1  UNL1        0.0033
     22 C          10.1558  -29.0793   24.0130 C.3     1  UNL1        0.0215
     23 C          10.6156  -28.4550   22.6935 C.3     1  UNL1        0.0908
     24 N           9.9556  -29.1359   21.5722 N.pl3   1  UNL1       -0.3075
     25 C           8.4971  -28.9800   21.6406 C.3     1  UNL1        0.0908
     26 C           7.9741  -29.6199   22.9286 C.3     1  UNL1        0.0215
     27 C           8.2541  -27.4632   24.1637 C.3     1  UNL1        0.0001
     28 N          18.8937  -27.6739   14.4931 N.pl3   1  UNL1        0.0589
     29 O          19.0111  -28.7735   15.0036 O.2     1  UNL1       -0.1261
     30 O          19.6208  -27.3496   13.5712 O.2     1  UNL1       -0.1261
     31 N          19.6067  -25.2820   15.8285 N.pl3   1  UNL1       -0.3319
     32 H          20.2083  -25.9690   16.1966 H       1  UNL1        0.1468
     33 C          20.1327  -23.9614   15.4740 C.3     1  UNL1        0.0804
     34 C          20.8985  -23.3811   16.6646 C.3     1  UNL1        0.0265
     35 C          20.4591  -21.9342   16.8974 C.3     1  UNL1        0.0626
     36 C          21.3322  -20.9954   16.0625 C.3     1  UNL1        0.1059
     37 N          21.3121  -19.6514   16.6553 N.4     1  UNL1        0.2849
     38 C          21.8065  -18.6484   15.7026 C.3     1  UNL1        0.1674
     39 C          19.9661  -19.3063   17.1320 C.3     1  UNL1        0.1674
     40 H          21.9385  -19.6546   17.4603 H       1  UNL1        0.2072
     41 C          21.0756  -24.0928   14.2763 C.3     1  UNL1        0.0816
     42 S          20.5369  -22.9706   12.9567 S.3     1  UNL1       -0.1119
     43 C          18.8768  -23.4625   12.6301 C.ar    1  UNL1        0.0253
     44 C          18.6230  -24.6351   11.9287 C.ar    1  UNL1        0.0061
     45 C          17.3207  -25.0177   11.6750 C.ar    1  UNL1        0.0005
     46 C          16.2696  -24.2353   12.1175 C.ar    1  UNL1        0.0000
     47 C          16.5184  -23.0677   12.8159 C.ar    1  UNL1        0.0005
     48 C          17.8181  -22.6791   13.0736 C.ar    1  UNL1        0.0061
@<TRIPOS>UNITY_ATOM_ATTR
37 1
charge 1
@<TRIPOS>BOND
     1    20    21    1
     2    21    26    1
     3    21    22    1
     4    21    27    1
     5    22    23    1
     6    23    24    1
     7    24    25    1
     8    24    14    1
     9    25    26    1
    10    14    19   ar
    11    14    15   ar
    12    15    16   ar
    13    16    17   ar
    14    17    18   ar
    15    17    10    1
    16    18    19   ar
    17    10    11    1
    18    10    12    2
    19    12     7    1
    20     7     8    2
    21     7     9    2
    22     7     1    1
    23     1     6   ar
    24     1     2   ar
    25     2     3   ar
    26     3     4   ar
    27     4     5   ar
    28     4    31    1
    29     5     6   ar
    30     5    28    1
    31    28    29    2
    32    28    30    2
    33    31    33    1
    34    33    34    1
    35    33    41    1
    36    34    35    1
    37    35    36    1
    38    36    37    1
    39    37    38    1
    40    37    39    1
    41    41    42    1
    42    42    43    1
    43    43    48   ar
    44    43    44   ar
    45    44    45   ar
    46    45    46   ar
    47    46    47   ar
    48    47    48   ar
    49    11    13    1
    50    31    32    1
    51    37    40    1
#	Name:			ZINC29493015
#	Creating user name:	trannguyen
#	Creation time:		Wed Dec  7 14:36:19 2022


#	Modifying user name:	trannguyen
#	Modification time:	Wed Dec  7 14:36:19 2022

@<TRIPOS>MOLECULE
ZINC29493015
 46 49 0 0 0
SMALL
GASTEIGER

@<TRIPOS>ATOM
      1 C          12.7920  -27.5473   16.9025 C.ar    1  UNL1        0.0505
      2 C          12.4967  -26.9588   15.6916 C.ar    1  UNL1        0.0147
      3 C          13.4095  -26.1111   15.0714 C.ar    1  UNL1        0.0013
      4 C          14.6160  -25.8395   15.6421 C.ar    1  UNL1        0.0013
      5 C          14.9548  -26.4187   16.8751 C.ar    1  UNL1        0.0147
      6 C          14.0331  -27.2791   17.5192 C.ar    1  UNL1        0.0147
      7 C          14.3741  -27.8624   18.7497 C.ar    1  UNL1        0.0013
      8 C          15.5811  -27.5915   19.3199 C.ar    1  UNL1        0.0013
      9 C          16.4937  -26.7435   18.6997 C.ar    1  UNL1        0.0147
     10 C          16.1983  -26.1551   17.4888 C.ar    1  UNL1        0.0505
     11 C          10.8931  -27.8838   18.2904 C.2     1  UNL1        0.2495
     12 O          10.8640  -26.6907   18.5217 O.2     1  UNL1       -0.2698
     13 N          11.8699  -28.3964   17.5160 N.am    1  UNL1       -0.2804
     14 H          11.9328  -29.3699   17.3830 H       1  UNL1        0.1552
     15 C           7.9174  -30.4372   19.9229 C.ar    1  UNL1        0.1222
     16 C           8.3741  -29.3556   20.6552 C.ar    1  UNL1        0.0201
     17 C           9.3441  -28.5254   20.1329 C.ar    1  UNL1        0.0059
     18 C           9.8574  -28.7722   18.8584 C.ar    1  UNL1        0.0538
     19 C           9.3884  -29.8620   18.1229 C.ar    1  UNL1        0.0059
     20 C           8.4218  -30.6875   18.6591 C.ar    1  UNL1        0.0201
     21 S           6.6827  -31.4962   20.6001 S.O2    1  UNL1        0.0633
     22 O           5.9001  -31.9580   19.5076 O.2     1  UNL1       -0.1528
     23 O           6.1159  -30.8049   21.7046 O.2     1  UNL1       -0.1528
     24 N           7.4597  -32.8211   21.2192 N.3     1  UNL1       -0.1555
     25 C           7.5803  -35.2189   20.7531 C.3     1  UNL1        0.0206
     26 C           6.7432  -34.0911   21.3600 C.3     1  UNL1        0.0958
     27 C           8.8637  -32.7230   21.6261 C.3     1  UNL1        0.0958
     28 C           8.9403  -32.3571   23.1097 C.3     1  UNL1        0.0206
     29 N          17.1202  -25.3057   16.8753 N.am    1  UNL1       -0.2804
     30 C          18.0564  -25.8120   16.0483 C.2     1  UNL1        0.2495
     31 O          18.1507  -27.0150   15.9009 O.2     1  UNL1       -0.2698
     32 H          17.0868  -24.3368   17.0465 H       1  UNL1        0.1552
     33 C          18.9682  -24.9044   15.3206 C.ar    1  UNL1        0.0538
     34 C          18.4511  -23.9171   14.4800 C.ar    1  UNL1        0.0059
     35 C          19.3077  -23.0703   13.8076 C.ar    1  UNL1        0.0201
     36 C          20.6767  -23.2046   13.9566 C.ar    1  UNL1        0.1222
     37 C          21.1959  -24.1844   14.7841 C.ar    1  UNL1        0.0201
     38 C          20.3504  -25.0345   15.4665 C.ar    1  UNL1        0.0059
     39 S          21.7637  -22.1227   13.0891 S.O2    1  UNL1        0.0633
     40 O          23.0838  -22.5821   13.3455 O.2     1  UNL1       -0.1528
     41 O          21.2439  -21.9942   11.7729 O.2     1  UNL1       -0.1528
     42 N          21.6362  -20.6306   13.7961 N.3     1  UNL1       -0.1555
     43 C          22.0868  -20.4328   15.1760 C.3     1  UNL1        0.0958
     44 C          20.8842  -20.4993   16.1196 C.3     1  UNL1        0.0206
     45 C          21.0729  -19.5083   13.0414 C.3     1  UNL1        0.0958
     46 C          21.8307  -18.2262   13.3924 C.3     1  UNL1        0.0206
@<TRIPOS>BOND
     1    25    26    1
     2    26    24    1
     3    24    27    1
     4    24    21    1
     5    27    28    1
     6    21    22    2
     7    21    23    2
     8    21    15    1
     9    15    20   ar
    10    15    16   ar
    11    16    17   ar
    12    17    18   ar
    13    18    19   ar
    14    18    11    1
    15    19    20   ar
    16    11    12    2
    17    11    13   am
    18    13     1    1
    19     1     6   ar
    20     1     2   ar
    21     2     3   ar
    22     3     4   ar
    23     4     5   ar
    24     5    10   ar
    25     5     6   ar
    26     6     7   ar
    27     7     8   ar
    28     8     9   ar
    29     9    10   ar
    30    10    29    1
    31    29    30   am
    32    30    31    2
    33    30    33    1
    34    33    38   ar
    35    33    34   ar
    36    34    35   ar
    37    35    36   ar
    38    36    37   ar
    39    36    39    1
    40    37    38   ar
    41    39    40    2
    42    39    41    2
    43    39    42    1
    44    42    43    1
    45    42    45    1
    46    43    44    1
    47    45    46    1
    48    13    14    1
    49    29    32    1
#	Name:			ZINC29565887
#	Creating user name:	trannguyen
#	Creation time:		Wed Dec  7 14:36:19 2022


#	Modifying user name:	trannguyen
#	Modification time:	Wed Dec  7 14:36:19 2022

@<TRIPOS>MOLECULE
ZINC29565887
 50 54 0 0 0
SMALL
GASTEIGER

@<TRIPOS>ATOM
      1 C          19.2933  -25.4599   16.8017 C.2     1  UNL1        0.2631
      2 O          19.7118  -26.1782   15.9130 O.2     1  UNL1       -0.2684
      3 N          18.1310  -24.7968   16.6410 N.am    1  UNL1       -0.2792
      4 H          17.7540  -24.2763   17.3869 H       1  UNL1        0.1552
      5 C          17.4639  -24.8477   15.4211 C.ar    1  UNL1        0.0550
      6 C          17.7903  -23.9540   14.4091 C.ar    1  UNL1        0.0148
      7 C          17.1309  -24.0100   13.1981 C.ar    1  UNL1        0.0013
      8 C          16.1333  -24.9479   12.9853 C.ar    1  UNL1        0.0002
      9 C          15.7920  -25.8388   13.9795 C.ar    1  UNL1        0.0058
     10 C          16.4540  -25.7983   15.2088 C.ar    1  UNL1        0.0683
     11 C          16.0939  -26.7494   16.2772 C.2     1  UNL1        0.2628
     12 O          16.3397  -27.9330   16.1458 O.2     1  UNL1       -0.2686
     13 N          15.4925  -26.3065   17.3991 N.am    1  UNL1       -0.2260
     14 H          15.2936  -25.3482   17.5056 H       1  UNL1        0.1734
     15 N          15.1504  -27.2099   18.4138 N.am    1  UNL1       -0.1947
     16 C          13.7426  -27.5976   18.6241 C.3     1  UNL1        0.1650
     17 S          13.9335  -29.0828   19.7012 S.3     1  UNL1       -0.1053
     18 C          15.6470  -28.7057   20.2727 C.3     1  UNL1        0.1460
     19 C          16.0893  -27.7307   19.1931 C.2     1  UNL1        0.2532
     20 O          17.2575  -27.4367   19.0521 O.2     1  UNL1       -0.2724
     21 C          13.0791  -27.9556   17.3193 C.ar    1  UNL1        0.0077
     22 C          12.2792  -27.0296   16.6752 C.ar    1  UNL1       -0.0005
     23 C          11.6742  -27.3525   15.4765 C.ar    1  UNL1        0.0143
     24 C          11.8608  -28.6130   14.9234 C.ar    1  UNL1        0.0479
     25 C          12.6605  -29.5428   15.5759 C.ar    1  UNL1        0.0143
     26 C          13.2670  -29.2114   16.7715 C.ar    1  UNL1       -0.0005
     27 N          11.2454  -28.9451   13.7143 N.pl3   1  UNL1       -0.3041
     28 C          11.5828  -30.2021   13.0417 C.3     1  UNL1        0.1122
     29 C          10.2628  -28.0364   13.1187 C.3     1  UNL1        0.1122
     30 C          20.6391  -24.1316   18.3514 C.2     1  UNL1        0.0193
     31 C          20.0542  -25.3155   18.0481 C.2     1  UNL1        0.1049
     32 C          20.7144  -21.0078   15.4836 C.ar    1  UNL1        0.0479
     33 C          21.3169  -22.2290   15.1955 C.ar    1  UNL1        0.0145
     34 C          21.2950  -23.2453   16.1230 C.ar    1  UNL1        0.0013
     35 C          20.6654  -23.0496   17.3583 C.ar    1  UNL1        0.0015
     36 C          20.0559  -21.8212   17.6418 C.ar    1  UNL1        0.0013
     37 C          20.0869  -20.8088   16.7102 C.ar    1  UNL1        0.0145
     38 C          20.8956  -18.5920   14.9768 C.3     1  UNL1        0.1122
     39 N          20.7389  -19.9821   14.5419 N.pl3   1  UNL1       -0.3041
     40 C          20.6082  -20.2933   13.1163 C.3     1  UNL1        0.1122
     41 N          20.1758  -26.4006   18.9234 N.am    1  UNL1       -0.2768
     42 C          21.2911  -27.1571   18.9080 C.2     1  UNL1        0.2496
     43 O          22.2340  -26.8357   18.2110 O.2     1  UNL1       -0.2698
     44 H          19.4467  -26.6113   19.5505 H       1  UNL1        0.1553
     45 C          21.3679  -28.3775   19.7383 C.ar    1  UNL1        0.0537
     46 C          20.2022  -29.0589   20.0926 C.ar    1  UNL1        0.0045
     47 C          20.2814  -30.2010   20.8623 C.ar    1  UNL1        0.0001
     48 C          21.5117  -30.6642   21.2936 C.ar    1  UNL1        0.0000
     49 C          22.6705  -29.9902   20.9512 C.ar    1  UNL1        0.0001
     50 C          22.6060  -28.8506   20.1765 C.ar    1  UNL1        0.0045
@<TRIPOS>BOND
     1    38    39    1
     2    39    40    1
     3    39    32    1
     4    32    37   ar
     5    32    33   ar
     6    33    34   ar
     7    34    35   ar
     8    35    36   ar
     9    35    30    1
    10    36    37   ar
    11    30    31    2
    12    31     1    1
    13    31    41    1
    14     1     2    2
    15     1     3   am
    16     3     5    1
    17     5    10   ar
    18     5     6   ar
    19     6     7   ar
    20     7     8   ar
    21     8     9   ar
    22     9    10   ar
    23    10    11    1
    24    11    12    2
    25    11    13   am
    26    13    15    1
    27    15    19   am
    28    15    16    1
    29    16    17    1
    30    16    21    1
    31    17    18    1
    32    18    19    1
    33    19    20    2
    34    21    26   ar
    35    21    22   ar
    36    22    23   ar
    37    23    24   ar
    38    24    25   ar
    39    24    27    1
    40    25    26   ar
    41    27    28    1
    42    27    29    1
    43    41    42   am
    44    42    43    2
    45    42    45    1
    46    45    50   ar
    47    45    46   ar
    48    46    47   ar
    49    47    48   ar
    50    48    49   ar
    51    49    50   ar
    52     3     4    1
    53    13    14    1
    54    41    44    1
#	Name:			ZINC29565897
#	Creating user name:	trannguyen
#	Creation time:		Wed Dec  7 14:36:19 2022


#	Modifying user name:	trannguyen
#	Modification time:	Wed Dec  7 14:36:19 2022

@<TRIPOS>MOLECULE
ZINC29565897
 50 54 0 0 0
SMALL
GASTEIGER

@<TRIPOS>ATOM
      1 C          19.7244  -27.7730   17.8527 C.2     1  UNL1        0.2631
      2 O          19.3812  -28.6196   17.0487 O.2     1  UNL1       -0.2684
      3 N          18.9497  -27.5068   18.9231 N.am    1  UNL1       -0.2792
      4 H          19.1872  -26.7702   19.5316 H       1  UNL1        0.1552
      5 C          17.8144  -28.2731   19.1681 C.ar    1  UNL1        0.0550
      6 C          17.8879  -29.3839   19.9986 C.ar    1  UNL1        0.0148
      7 C          16.7606  -30.1423   20.2402 C.ar    1  UNL1        0.0013
      8 C          15.5494  -29.8036   19.6582 C.ar    1  UNL1        0.0002
      9 C          15.4574  -28.7054   18.8311 C.ar    1  UNL1        0.0058
     10 C          16.5897  -27.9278   18.5770 C.ar    1  UNL1        0.0683
     11 C          16.4997  -26.7544   17.6878 C.2     1  UNL1        0.2628
     12 O          16.4770  -25.6341   18.1599 O.2     1  UNL1       -0.2686
     13 N          16.4426  -26.9240   16.3519 N.am    1  UNL1       -0.2260
     14 H          16.3849  -27.8308   15.9729 H       1  UNL1        0.1734
     15 N          16.4652  -25.8100   15.5027 N.am    1  UNL1       -0.1947
     16 C          15.2222  -25.0734   15.2052 C.3     1  UNL1        0.1650
     17 S          15.7376  -24.0682   13.7470 S.3     1  UNL1       -0.1053
     18 C          17.5551  -24.1927   14.0412 C.3     1  UNL1        0.1460
     19 C          17.6057  -25.4020   14.9613 C.2     1  UNL1        0.2532
     20 O          18.6500  -25.9753   15.1890 O.2     1  UNL1       -0.2724
     21 C          14.1059  -26.0190   14.8437 C.ar    1  UNL1        0.0077
     22 C          12.9531  -26.0493   15.6069 C.ar    1  UNL1       -0.0005
     23 C          11.9258  -26.9107   15.2749 C.ar    1  UNL1        0.0143
     24 C          12.0563  -27.7553   14.1799 C.ar    1  UNL1        0.0479
     25 C          13.2180  -27.7263   13.4189 C.ar    1  UNL1        0.0143
     26 C          14.2391  -26.8585   13.7529 C.ar    1  UNL1       -0.0005
     27 N          11.0219  -28.6321   13.8450 N.pl3   1  UNL1       -0.3041
     28 C           9.9353  -28.1833   12.9708 C.3     1  UNL1        0.1122
     29 C          11.0235  -30.0006   14.3679 C.3     1  UNL1        0.1122
     30 C          22.1605  -27.6205   17.9906 C.2     1  UNL1        0.0193
     31 C          20.9816  -27.0421   17.6570 C.2     1  UNL1        0.1049
     32 C          22.1961  -31.2068   20.2543 C.ar    1  UNL1        0.0479
     33 C          22.0853  -29.9792   20.9010 C.ar    1  UNL1        0.0145
     34 C          22.0733  -28.8129   20.1705 C.ar    1  UNL1        0.0013
     35 C          22.1733  -28.8626   18.7747 C.ar    1  UNL1        0.0015
     36 C          22.2799  -30.1001   18.1281 C.ar    1  UNL1        0.0013
     37 C          22.2955  -31.2610   18.8670 C.ar    1  UNL1        0.0145
     38 C          21.9250  -32.3464   22.4347 C.3     1  UNL1        0.1122
     39 N          22.2074  -32.3845   20.9976 N.pl3   1  UNL1       -0.3041
     40 C          22.5016  -33.6614   20.3425 C.3     1  UNL1        0.1122
     41 N          20.9630  -25.7476   17.1256 N.am    1  UNL1       -0.2768
     42 C          20.7094  -24.6938   17.9268 C.2     1  UNL1        0.2496
     43 O          20.5910  -24.8565   19.1258 O.2     1  UNL1       -0.2698
     44 H          21.1351  -25.6066   16.1666 H       1  UNL1        0.1553
     45 C          20.5751  -23.3406   17.3476 C.ar    1  UNL1        0.0537
     46 C          20.3108  -22.2473   18.1743 C.ar    1  UNL1        0.0045
     47 C          20.1927  -20.9860   17.6280 C.ar    1  UNL1        0.0001
     48 C          20.3241  -20.8052   16.2625 C.ar    1  UNL1        0.0000
     49 C          20.5799  -21.8854   15.4368 C.ar    1  UNL1        0.0001
     50 C          20.7063  -23.1511   15.9708 C.ar    1  UNL1        0.0045
@<TRIPOS>BOND
     1    38    39    1
     2    39    40    1
     3    39    32    1
     4    32    37   ar
     5    32    33   ar
     6    33    34   ar
     7    34    35   ar
     8    35    36   ar
     9    35    30    1
    10    36    37   ar
    11    30    31    2
    12    31     1    1
    13    31    41    1
    14     1     2    2
    15     1     3   am
    16     3     5    1
    17     5    10   ar
    18     5     6   ar
    19     6     7   ar
    20     7     8   ar
    21     8     9   ar
    22     9    10   ar
    23    10    11    1
    24    11    12    2
    25    11    13   am
    26    13    15    1
    27    15    19   am
    28    15    16    1
    29    16    17    1
    30    16    21    1
    31    17    18    1
    32    18    19    1
    33    19    20    2
    34    21    26   ar
    35    21    22   ar
    36    22    23   ar
    37    23    24   ar
    38    24    25   ar
    39    24    27    1
    40    25    26   ar
    41    27    28    1
    42    27    29    1
    43    41    42   am
    44    42    43    2
    45    42    45    1
    46    45    50   ar
    47    45    46   ar
    48    46    47   ar
    49    47    48   ar
    50    48    49   ar
    51    49    50   ar
    52     3     4    1
    53    13    14    1
    54    41    44    1
#	Name:			ZINC29628454
#	Creating user name:	trannguyen
#	Creation time:		Wed Dec  7 14:36:20 2022


#	Modifying user name:	trannguyen
#	Modification time:	Wed Dec  7 14:36:20 2022

@<TRIPOS>MOLECULE
ZINC29628454
 32 34 0 0 0
SMALL
GASTEIGER

@<TRIPOS>ATOM
      1 S          16.3006  -25.7225   15.3837 S.3     1  UNL1       -0.0673
      2 C          14.5582  -25.7961   15.1319 C.ar    1  UNL1        0.1940
      3 N          13.7243  -24.7816   15.1563 N.ar    1  UNL1       -0.1221
      4 N          12.5258  -25.1881   14.9334 N.ar    1  UNL1       -0.1277
      5 C          12.5201  -26.4905   14.7523 C.ar    1  UNL1        0.1732
      6 N          13.8223  -26.9205   14.8795 N.ar    1  UNL1       -0.2810
      7 C          11.3442  -27.3303   14.4730 C.ar    1  UNL1        0.0654
      8 C          10.6068  -27.4297   13.3201 C.ar    1  UNL1        0.0101
      9 C           9.5395  -28.2991   13.2916 C.ar    1  UNL1        0.0076
     10 C           9.2427  -29.0202   14.4036 C.ar    1  UNL1        0.0355
     11 S          10.5062  -28.4855   15.5458 S.2     1  UNL1       -0.0833
     12 C          14.3162  -28.2949   14.7650 C.3     1  UNL1        0.1941
     13 C          14.5314  -28.8678   16.1421 C.2     1  UNL1        0.2426
     14 O          13.8148  -28.5271   17.0594 O.2     1  UNL1       -0.2732
     15 N          15.5201  -29.7586   16.3545 N.am    1  UNL1       -0.3272
     16 H          16.1019  -30.0353   15.6100 H       1  UNL1        0.1450
     17 H          15.6606  -30.1328   17.2542 H       1  UNL1        0.1450
     18 C          16.7084  -24.2970   14.3456 C.3     1  UNL1        0.1339
     19 C          18.1713  -24.3391   13.9866 C.2     1  UNL1        0.1840
     20 O          18.6491  -25.3447   13.5063 O.2     1  UNL1       -0.2904
     21 C          20.6169  -20.9388   14.6568 C.ar    1  UNL1       -0.0228
     22 C          20.0444  -21.1406   13.4128 C.ar    1  UNL1       -0.0042
     23 C          19.2484  -22.2433   13.1871 C.ar    1  UNL1        0.0022
     24 C          19.0203  -23.1596   14.2190 C.ar    1  UNL1        0.0316
     25 C          19.5983  -22.9460   15.4743 C.ar    1  UNL1       -0.0200
     26 C          20.3964  -21.8409   15.6827 C.ar    1  UNL1       -0.0085
     27 C          21.4162  -18.8047   13.6788 C.3     1  UNL1        0.0047
     28 C          21.4855  -19.7304   14.8950 C.3     1  UNL1        0.0223
     29 C          20.9897  -18.9823   16.1342 C.3     1  UNL1        0.0047
     30 C          19.3543  -23.9239   16.5946 C.3     1  UNL1        0.0224
     31 C          20.5736  -24.8349   16.7510 C.3     1  UNL1        0.0047
     32 C          19.1194  -23.1580   17.8981 C.3     1  UNL1        0.0047
@<TRIPOS>BOND
     1    27    28    1
     2    28    29    1
     3    28    21    1
     4    21    26   ar
     5    21    22   ar
     6    22    23   ar
     7    23    24   ar
     8    24    25   ar
     9    24    19    1
    10    25    26   ar
    11    25    30    1
    12    30    31    1
    13    30    32    1
    14    19    20    2
    15    19    18    1
    16    18     1    1
    17     1     2    1
    18     2     6   ar
    19     2     3   ar
    20     3     4   ar
    21     4     5   ar
    22     5     6   ar
    23     5     7    1
    24     6    12    1
    25    12    13    1
    26    13    14    2
    27    13    15   am
    28     7    11   ar
    29     7     8   ar
    30     8     9   ar
    31     9    10   ar
    32    10    11   ar
    33    15    16    1
    34    15    17    1
#	Name:			ZINC29666885
#	Creating user name:	trannguyen
#	Creation time:		Wed Dec  7 14:36:20 2022


#	Modifying user name:	trannguyen
#	Modification time:	Wed Dec  7 14:36:20 2022

@<TRIPOS>MOLECULE
ZINC29666885
 36 39 0 0 0
SMALL
GASTEIGER

@<TRIPOS>ATOM
      1 C          14.0699  -27.2393   16.0507 C.3     1  UNL1        0.1502
      2 N          15.0600  -25.8994   14.2223 N.am    1  UNL1       -0.2634
      3 C          15.0516  -26.2207   15.5311 C.2     1  UNL1        0.2390
      4 O          15.8342  -25.6902   16.2908 O.2     1  UNL1       -0.2738
      5 H          14.4248  -26.3300   13.6056 H       1  UNL1        0.1568
      6 C          17.9695  -23.4840   12.8370 C.ar    1  UNL1        0.0334
      7 C          16.7473  -22.9256   13.0151 C.ar    1  UNL1        0.1034
      8 N          15.7677  -23.6868   13.4620 N.ar    1  UNL1       -0.2227
      9 C          15.9655  -24.9600   13.7430 C.ar    1  UNL1        0.1653
     10 S          17.6453  -25.1636   13.3534 S.2     1  UNL1       -0.0554
     11 C          19.2484  -22.8606   12.3401 C.3     1  UNL1        0.0609
     12 C          21.3820  -19.3448   16.3998 C.3     1  UNL1        0.0310
     13 C          20.8248  -20.2613   15.3412 C.ar    1  UNL1       -0.0219
     14 C          20.7690  -19.8434   14.0247 C.ar    1  UNL1       -0.0046
     15 C          20.2588  -20.6845   13.0535 C.ar    1  UNL1       -0.0042
     16 C          19.8046  -21.9436   13.3988 C.ar    1  UNL1       -0.0172
     17 C          19.8556  -22.3596   14.7161 C.ar    1  UNL1       -0.0042
     18 C          20.3698  -21.5201   15.6866 C.ar    1  UNL1       -0.0046
     19 S          12.4214  -26.8764   15.3973 S.3     1  UNL1       -0.0658
     20 C          11.4275  -27.4910   16.7160 C.ar    1  UNL1        0.1937
     21 N          11.2617  -26.9308   17.8931 N.ar    1  UNL1       -0.1220
     22 N          10.4699  -27.6413   18.6139 N.ar    1  UNL1       -0.1250
     23 C          10.0876  -28.7065   17.9439 C.ar    1  UNL1        0.2016
     24 N          10.6903  -28.6419   16.7067 N.ar    1  UNL1       -0.2875
     25 C           9.1875  -29.7661   18.4246 C.ar    1  UNL1        0.1812
     26 C           7.8558  -29.6304   18.6793 C.ar    1  UNL1        0.0439
     27 C           7.3960  -30.8885   19.1141 C.ar    1  UNL1        0.0439
     28 C           8.4570  -31.7199   19.1124 C.ar    1  UNL1        0.1798
     29 O           9.5375  -31.0392   18.6955 O.2     1  UNL1       -0.4473
     30 C          10.5668  -29.6055   15.6102 C.3     1  UNL1        0.1191
     31 C           9.4477  -29.1625   14.6655 C.3     1  UNL1        0.1093
     32 C          10.0230  -28.8844   13.3008 C.2     1  UNL1        0.2214
     33 O          11.0618  -29.4106   12.9618 O.2     1  UNL1       -0.2753
     34 N           9.3831  -28.0508   12.4568 N.am    1  UNL1       -0.3287
     35 H           8.5399  -27.6235   12.7320 H       1  UNL1        0.1449
     36 H           9.7589  -27.8691   11.5652 H       1  UNL1        0.1449
@<TRIPOS>BOND
     1    12    13    1
     2    13    18   ar
     3    13    14   ar
     4    14    15   ar
     5    15    16   ar
     6    16    17   ar
     7    16    11    1
     8    17    18   ar
     9    11     6    1
    10     6    10   ar
    11     6     7   ar
    12     7     8   ar
    13     8     9   ar
    14     9    10   ar
    15     9     2    1
    16     2     3   am
    17     3     4    2
    18     3     1    1
    19     1    19    1
    20    19    20    1
    21    20    24   ar
    22    20    21   ar
    23    21    22   ar
    24    22    23   ar
    25    23    24   ar
    26    23    25    1
    27    24    30    1
    28    30    31    1
    29    31    32    1
    30    32    33    2
    31    32    34   am
    32    25    29   ar
    33    25    26   ar
    34    26    27   ar
    35    27    28   ar
    36    28    29   ar
    37     2     5    1
    38    34    35    1
    39    34    36    1
#	Name:			ZINC29741506
#	Creating user name:	trannguyen
#	Creation time:		Wed Dec  7 14:36:19 2022


#	Modifying user name:	trannguyen
#	Modification time:	Wed Dec  7 14:36:19 2022

@<TRIPOS>MOLECULE
ZINC29741506
 34 37 0 0 0
SMALL
GASTEIGER

@<TRIPOS>ATOM
      1 C          18.5601  -23.5526   13.6498 C.ar    1  UNL1        0.1260
      2 C          17.5634  -22.8340   13.0048 C.ar    1  UNL1        0.0238
      3 C          16.2513  -23.1901   13.1363 C.ar    1  UNL1        0.0472
      4 C          15.9038  -24.2884   13.9274 C.ar    1  UNL1        0.1821
      5 C          16.9124  -25.0160   14.5811 C.ar    1  UNL1        0.1833
      6 C          18.2407  -24.6392   14.4357 C.ar    1  UNL1        0.0657
      7 N          16.2688  -26.0227   15.2727 N.ar    1  UNL1       -0.2389
      8 C          14.9362  -25.8898   15.0335 C.ar    1  UNL1        0.2769
      9 N          14.7221  -24.8760   14.2468 N.ar    1  UNL1       -0.2390
     10 H          16.6952  -26.7094   15.8347 H       1  UNL1        0.3111
     11 H          13.8378  -24.5799   13.9311 H       1  UNL1        0.3111
     12 S          20.2451  -23.0724   13.4637 S.O2    1  UNL1        0.0634
     13 O          21.0205  -24.2573   13.5814 O.2     1  UNL1       -0.1528
     14 O          20.3043  -22.2339   12.3180 O.2     1  UNL1       -0.1528
     15 N          20.6304  -22.1234   14.7651 N.3     1  UNL1       -0.1555
     16 C          19.9613  -22.2889   17.1116 C.3     1  UNL1        0.0206
     17 C          20.9650  -22.7429   16.0498 C.3     1  UNL1        0.0958
     18 C          20.6367  -20.6646   14.6316 C.3     1  UNL1        0.0958
     19 C          22.0039  -20.1200   15.0499 C.3     1  UNL1        0.0206
     20 C          13.8643  -26.7864   15.5975 C.3     1  UNL1        0.1791
     21 S          12.2372  -26.2055   15.0446 S.3     1  UNL1       -0.0736
     22 C          11.4202  -27.6720   14.5094 C.ar    1  UNL1        0.1611
     23 N          10.5107  -27.8256   13.5663 N.ar    1  UNL1       -0.1331
     24 N          10.0009  -29.0763   13.3044 N.ar    1  UNL1       -0.1252
     25 C          10.4152  -30.1137   14.0047 C.ar    1  UNL1        0.1829
     26 S          11.5962  -29.3472   15.1041 S.2     1  UNL1       -0.0245
     27 N          10.0345  -31.4474   13.9125 N.pl3   1  UNL1       -0.3095
     28 H           9.1041  -31.7080   14.1019 H       1  UNL1        0.1488
     29 C          11.0176  -32.4652   13.5335 C.3     1  UNL1        0.1185
     30 C          11.9512  -31.8985   12.4619 C.3     1  UNL1        0.1348
     31 C          13.4178  -32.0576   12.9074 C.3     1  UNL1        0.0339
     32 C          14.0649  -32.9067   11.7862 C.3     1  UNL1        0.0346
     33 C          13.0902  -32.6791   10.6029 C.3     1  UNL1        0.1422
     34 O          11.7915  -32.6329   11.2367 O.3     1  UNL1       -0.3545
@<TRIPOS>UNITY_ATOM_ATTR
9 1
charge 1
@<TRIPOS>BOND
     1    16    17    1
     2    17    15    1
     3    15    18    1
     4    15    12    1
     5    18    19    1
     6    12    13    2
     7    12    14    2
     8    12     1    1
     9     1     6   ar
    10     1     2   ar
    11     2     3   ar
    12     3     4   ar
    13     4     9   ar
    14     4     5   ar
    15     5     6   ar
    16     5     7   ar
    17     7     8   ar
    18     8     9   ar
    19     8    20    1
    20    20    21    1
    21    21    22    1
    22    22    26   ar
    23    22    23   ar
    24    23    24   ar
    25    24    25   ar
    26    25    26   ar
    27    25    27    1
    28    27    29    1
    29    29    30    1
    30    30    34    1
    31    30    31    1
    32    31    32    1
    33    32    33    1
    34    33    34    1
    35     7    10    1
    36     9    11    1
    37    27    28    1
#	Name:			ZINC29747691
#	Creating user name:	trannguyen
#	Creation time:		Wed Dec  7 14:36:19 2022


#	Modifying user name:	trannguyen
#	Modification time:	Wed Dec  7 14:36:19 2022

@<TRIPOS>MOLECULE
ZINC29747691
 44 47 0 0 0
SMALL
GASTEIGER

@<TRIPOS>ATOM
      1 C          19.5283  -24.4752   16.3149 C.2     1  UNL1        0.0753
      2 C          18.2203  -24.7578   16.5514 C.2     1  UNL1        0.0515
      3 N          17.2359  -24.2844   15.7115 N.pl3   1  UNL1       -0.3076
      4 C          17.5616  -23.8483   14.4474 C.2     1  UNL1        0.0813
      5 C          18.8453  -23.5316   14.1319 C.2     1  UNL1        0.0735
      6 C          19.9519  -23.6391   15.1416 C.3     1  UNL1        0.0866
      7 H          16.2999  -24.2582   16.0156 H       1  UNL1        0.1527
      8 C          20.3187  -22.2591   15.6234 C.ar    1  UNL1       -0.0027
      9 C          19.5658  -21.6482   16.6086 C.ar    1  UNL1       -0.0028
     10 C          19.9017  -20.3822   17.0504 C.ar    1  UNL1       -0.0002
     11 C          20.9914  -19.7267   16.5078 C.ar    1  UNL1        0.0008
     12 C          21.7451  -20.3366   15.5231 C.ar    1  UNL1        0.0111
     13 C          21.4121  -21.6058   15.0838 C.ar    1  UNL1        0.0543
     14 CL         22.3627  -22.3757   13.8520 Cl      1  UNL1       -0.0826
     15 C          17.8500  -25.5758   17.7240 C.ar    1  UNL1        0.0133
     16 C          18.0398  -26.9592   17.7022 C.ar    1  UNL1        0.0012
     17 C          17.6976  -27.7163   18.8032 C.ar    1  UNL1        0.0000
     18 C          17.1562  -27.1097   19.9230 C.ar    1  UNL1        0.0000
     19 C          16.9597  -25.7403   19.9489 C.ar    1  UNL1        0.0000
     20 C          17.3031  -24.9701   18.8573 C.ar    1  UNL1        0.0012
     21 C          20.5093  -24.9778   17.1909 C.2     1  UNL1        0.3390
     22 O          21.1645  -25.9542   16.8755 O.2     1  UNL1       -0.2452
     23 O          20.7234  -24.3767   18.3810 O.3     1  UNL1       -0.4456
     24 C          20.6662  -25.7901   20.3405 C.3     1  UNL1        0.0513
     25 C          21.5489  -25.0703   19.3189 C.3     1  UNL1        0.2089
     26 C          19.1496  -23.0852   12.8058 C.1     1  UNL1        0.0985
     27 N          19.3912  -22.7310   11.7538 N.1     1  UNL1       -0.1911
     28 S          16.3001  -23.6920   13.2273 S.3     1  UNL1       -0.0890
     29 C          15.7299  -25.4078   13.1431 C.3     1  UNL1        0.1484
     30 C          14.8511  -25.7040   14.3309 C.2     1  UNL1        0.2375
     31 O          14.1865  -24.8200   14.8290 O.2     1  UNL1       -0.2738
     32 N          14.8035  -26.9511   14.8397 N.am    1  UNL1       -0.2832
     33 H          15.3917  -27.6530   14.4782 H       1  UNL1        0.1549
     34 C          13.9173  -27.2486   15.8828 C.ar    1  UNL1        0.0504
     35 C          12.5869  -27.5329   15.6039 C.ar    1  UNL1        0.0159
     36 C          11.7146  -27.8303   16.6316 C.ar    1  UNL1        0.0159
     37 C          12.1653  -27.8365   17.9451 C.ar    1  UNL1        0.0504
     38 C          13.4945  -27.5471   18.2245 C.ar    1  UNL1        0.0159
     39 C          14.3678  -27.2539   17.1965 C.ar    1  UNL1        0.0159
     40 N          11.2793  -28.1350   18.9882 N.am    1  UNL1       -0.2839
     41 C          10.5434  -27.1547   19.5485 C.2     1  UNL1        0.2266
     42 O          10.5768  -26.0328   19.0884 O.2     1  UNL1       -0.2748
     43 C           9.6790  -27.4523   20.7466 C.3     1  UNL1        0.0949
     44 H          11.1941  -29.0608   19.3120 H       1  UNL1        0.1549
@<TRIPOS>BOND
     1    24    25    1
     2    25    23    1
     3    23    21    1
     4    21    22    2
     5    21     1    1
     6     1     6    1
     7     1     2    2
     8     2     3    1
     9     2    15    1
    10     3     4    1
    11     4     5    2
    12     4    28    1
    13     5     6    1
    14     5    26    1
    15     6     8    1
    16     8    13   ar
    17     8     9   ar
    18     9    10   ar
    19    10    11   ar
    20    11    12   ar
    21    12    13   ar
    22    13    14    1
    23    26    27    3
    24    28    29    1
    25    29    30    1
    26    30    31    2
    27    30    32   am
    28    32    34    1
    29    34    39   ar
    30    34    35   ar
    31    35    36   ar
    32    36    37   ar
    33    37    38   ar
    34    37    40    1
    35    38    39   ar
    36    40    41   am
    37    41    42    2
    38    41    43    1
    39    15    20   ar
    40    15    16   ar
    41    16    17   ar
    42    17    18   ar
    43    18    19   ar
    44    19    20   ar
    45     3     7    1
    46    32    33    1
    47    40    44    1
#	Name:			ZINC29747832
#	Creating user name:	trannguyen
#	Creation time:		Wed Dec  7 14:36:19 2022


#	Modifying user name:	trannguyen
#	Modification time:	Wed Dec  7 14:36:19 2022

@<TRIPOS>MOLECULE
ZINC29747832
 47 50 0 0 0
SMALL
GASTEIGER

@<TRIPOS>ATOM
      1 C          13.5583  -26.6748   16.4656 C.3     1  UNL1        0.0526
      2 C          12.0125  -29.9459   14.1702 C.ar    1  UNL1        0.0516
      3 C          13.2859  -30.0138   14.7202 C.ar    1  UNL1        0.0144
      4 C          13.7783  -28.9560   15.4571 C.ar    1  UNL1       -0.0027
      5 C          13.0074  -27.8221   15.6587 C.ar    1  UNL1       -0.0177
      6 C          11.7400  -27.7382   15.1250 C.ar    1  UNL1       -0.0016
      7 C          11.2271  -28.8011   14.3765 C.ar    1  UNL1        0.0272
      8 C          11.0074  -32.0912   14.0439 C.2     1  UNL1        0.2497
      9 O          10.8934  -32.0991   15.2540 O.2     1  UNL1       -0.2698
     10 N          11.5161  -31.0090   13.4220 N.am    1  UNL1       -0.2803
     11 H          11.5365  -30.9707   12.4384 H       1  UNL1        0.1552
     12 C          10.9812  -34.8216   11.4582 C.ar    1  UNL1        0.1419
     13 C          11.3779  -33.7182   12.1955 C.ar    1  UNL1        0.0416
     14 C          10.5881  -33.2684   13.2542 C.ar    1  UNL1        0.0597
     15 C           9.4041  -33.9364   13.5690 C.ar    1  UNL1        0.0416
     16 C           9.0119  -35.0352   12.8226 C.ar    1  UNL1        0.1419
     17 C           9.8002  -35.4791   11.7707 C.ar    1  UNL1        0.0738
     18 C          11.5668  -36.6158   10.0124 C.3     1  UNL1        0.2525
     19 O          11.7497  -35.2605   10.4268 O.3     1  UNL1       -0.4713
     20 O           7.8559  -35.6829   13.1244 O.3     1  UNL1       -0.4713
     21 C           7.8200  -37.0915   12.8860 C.3     1  UNL1        0.2525
     22 C           9.8724  -28.7181   13.8023 C.2     1  UNL1        0.0740
     23 O           9.7047  -28.2082   12.7122 O.co2   1  UNL1       -0.5446
     24 O           8.8196  -29.2076   14.4864 O.co2   1  UNL1       -0.5446
     25 C          14.8590  -26.2137   15.8599 C.ar    1  UNL1       -0.0177
     26 C          16.0612  -26.6349   16.4059 C.ar    1  UNL1       -0.0027
     27 C          17.2595  -26.2241   15.8581 C.ar    1  UNL1        0.0144
     28 C          17.2674  -25.3748   14.7593 C.ar    1  UNL1        0.0516
     29 C          16.0519  -24.9421   14.2072 C.ar    1  UNL1        0.0272
     30 C          14.8468  -25.3712   14.7700 C.ar    1  UNL1       -0.0016
     31 N          18.4745  -24.9548   14.2088 N.am    1  UNL1       -0.2803
     32 C          19.2130  -24.0194   14.8382 C.2     1  UNL1        0.2497
     33 O          18.8742  -23.6126   15.9324 O.2     1  UNL1       -0.2698
     34 H          18.7890  -25.3408   13.3596 H       1  UNL1        0.1552
     35 C          20.4348  -23.4881   14.1979 C.ar    1  UNL1        0.0597
     36 C          21.6395  -24.1843   14.3039 C.ar    1  UNL1        0.0416
     37 C          22.7806  -23.6861   13.6972 C.ar    1  UNL1        0.1419
     38 C          22.7297  -22.4907   12.9948 C.ar    1  UNL1        0.0738
     39 C          21.5354  -21.7922   12.8922 C.ar    1  UNL1        0.1419
     40 C          20.3882  -22.2862   13.4906 C.ar    1  UNL1        0.0416
     41 O          21.4911  -20.6217   12.2030 O.3     1  UNL1       -0.4713
     42 C          21.4050  -19.4195   12.9708 C.3     1  UNL1        0.2525
     43 O          23.9531  -24.3664   13.7947 O.3     1  UNL1       -0.4713
     44 C          24.5574  -24.7958   12.5730 C.3     1  UNL1        0.2525
     45 C          16.0463  -24.0406   13.0414 C.2     1  UNL1        0.0740
     46 O          15.3573  -23.0397   13.0506 O.co2   1  UNL1       -0.5446
     47 O          16.8053  -24.3261   11.9651 O.co2   1  UNL1       -0.5446
@<TRIPOS>UNITY_ATOM_ATTR
24 1
charge -1
47 1
charge -1
@<TRIPOS>BOND
     1    18    19    1
     2    19    12    1
     3    12    17   ar
     4    12    13   ar
     5    13    14   ar
     6    14    15   ar
     7    14     8    1
     8    15    16   ar
     9    16    17   ar
    10    16    20    1
    11    20    21    1
    12     8     9    2
    13     8    10   am
    14    10     2    1
    15     2     7   ar
    16     2     3   ar
    17     3     4   ar
    18     4     5   ar
    19     5     6   ar
    20     5     1    1
    21     6     7   ar
    22     7    22    1
    23    22    23   ar
    24    22    24   ar
    25     1    25    1
    26    25    30   ar
    27    25    26   ar
    28    26    27   ar
    29    27    28   ar
    30    28    29   ar
    31    28    31    1
    32    29    30   ar
    33    29    45    1
    34    45    46   ar
    35    45    47   ar
    36    31    32   am
    37    32    33    2
    38    32    35    1
    39    35    40   ar
    40    35    36   ar
    41    36    37   ar
    42    37    38   ar
    43    37    43    1
    44    38    39   ar
    45    39    40   ar
    46    39    41    1
    47    41    42    1
    48    43    44    1
    49    10    11    1
    50    31    34    1
#	Name:			ZINC29747839
#	Creating user name:	trannguyen
#	Creation time:		Wed Dec  7 14:36:19 2022


#	Modifying user name:	trannguyen
#	Modification time:	Wed Dec  7 14:36:19 2022

@<TRIPOS>MOLECULE
ZINC29747839
 42 44 0 0 0
SMALL
GASTEIGER

@<TRIPOS>ATOM
      1 C          21.7131  -22.9416   14.9207 C.3     1  UNL1        0.0919
      2 C          22.5880  -22.2061   13.9039 C.2     1  UNL1        0.1105
      3 C          21.7123  -21.4653   12.9279 C.2     1  UNL1        0.1936
      4 O          22.0796  -20.4011   12.4773 O.2     1  UNL1       -0.4948
      5 N          20.5255  -21.9760   12.5520 N.pl3   1  UNL1       -0.2793
      6 C          20.0857  -23.1819   13.0562 C.2     1  UNL1        0.0834
      7 C          20.6222  -23.6898   14.1997 C.2     1  UNL1        0.0738
      8 H          22.9055  -20.0424   12.7369 H       1  UNL1        0.2935
      9 H          19.9650  -21.4834   11.9098 H       1  UNL1        0.1555
     10 C          20.8699  -22.2870   17.1895 C.ar    1  UNL1        0.1351
     11 C          20.3026  -21.3643   18.0568 C.ar    1  UNL1        0.0366
     12 C          19.9501  -20.1109   17.5958 C.ar    1  UNL1        0.0031
     13 C          20.1676  -19.7733   16.2725 C.ar    1  UNL1       -0.0001
     14 C          20.7376  -20.6889   15.4077 C.ar    1  UNL1       -0.0006
     15 C          21.0918  -21.9440   15.8639 C.ar    1  UNL1        0.0207
     16 O          21.2123  -23.5228   17.6393 O.3     1  UNL1       -0.4758
     17 C          20.9167  -25.4408   19.0797 C.3     1  UNL1        0.0512
     18 C          20.2682  -24.1930   18.4769 C.3     1  UNL1        0.2055
     19 C          20.1520  -24.9401   14.7158 C.1     1  UNL1        0.0985
     20 N          19.7790  -25.9320   15.1252 N.1     1  UNL1       -0.1911
     21 C          23.4383  -23.2028   13.1592 C.2     1  UNL1        0.3421
     22 O          23.7498  -22.9923   12.0110 O.2     1  UNL1       -0.2451
     23 O          23.8497  -24.3241   13.7715 O.3     1  UNL1       -0.4455
     24 C          23.5543  -25.5826   13.1103 C.3     1  UNL1        0.2089
     25 C          24.7953  -26.0668   12.3577 C.3     1  UNL1        0.0513
     26 S          18.8146  -24.0685   12.2179 S.3     1  UNL1       -0.0889
     27 C          17.3973  -23.0018   12.5779 C.3     1  UNL1        0.1484
     28 C          16.3763  -23.7742   13.3728 C.2     1  UNL1        0.2376
     29 O          15.2820  -23.2949   13.5827 O.2     1  UNL1       -0.2738
     30 N          16.6790  -24.9976   13.8504 N.am    1  UNL1       -0.2807
     31 H          17.5918  -25.3529   13.7510 H       1  UNL1        0.1550
     32 C          15.6944  -25.7640   14.4888 C.ar    1  UNL1        0.0879
     33 C          14.6403  -26.2902   13.7564 C.ar    1  UNL1        0.0555
     34 C          13.6682  -27.0481   14.3898 C.ar    1  UNL1        0.1506
     35 C          13.7491  -27.2813   15.7559 C.ar    1  UNL1        0.0946
     36 C          14.8018  -26.7616   16.4871 C.ar    1  UNL1        0.0526
     37 C          15.7730  -25.9989   15.8591 C.ar    1  UNL1        0.1531
     38 CL         12.5306  -28.2320   16.5465 Cl      1  UNL1       -0.0790
     39 O          16.8060  -25.4846   16.5798 O.3     1  UNL1       -0.4701
     40 C          17.1446  -26.1532   17.7965 C.3     1  UNL1        0.2525
     41 O          12.6344  -27.5643   13.6725 O.3     1  UNL1       -0.4705
     42 C          12.9187  -28.6958   12.8472 C.3     1  UNL1        0.2525
@<TRIPOS>BOND
     1    17    18    1
     2    18    16    1
     3    16    10    1
     4    10    15   ar
     5    10    11   ar
     6    11    12   ar
     7    12    13   ar
     8    13    14   ar
     9    14    15   ar
    10    15     1    1
    11     1     7    1
    12     1     2    1
    13     2     3    2
    14     2    21    1
    15     3     4    1
    16     3     5    1
    17     5     6    1
    18     6     7    2
    19     6    26    1
    20     7    19    1
    21    19    20    3
    22    26    27    1
    23    27    28    1
    24    28    29    2
    25    28    30   am
    26    30    32    1
    27    32    37   ar
    28    32    33   ar
    29    33    34   ar
    30    34    35   ar
    31    34    41    1
    32    35    36   ar
    33    35    38    1
    34    36    37   ar
    35    37    39    1
    36    39    40    1
    37    41    42    1
    38    21    22    2
    39    21    23    1
    40    23    24    1
    41    24    25    1
    42     4     8    1
    43     5     9    1
    44    30    31    1
#	Name:			ZINC29749817
#	Creating user name:	trannguyen
#	Creation time:		Wed Dec  7 14:36:19 2022


#	Modifying user name:	trannguyen
#	Modification time:	Wed Dec  7 14:36:19 2022

@<TRIPOS>MOLECULE
ZINC29749817
 44 47 0 0 0
SMALL
GASTEIGER

@<TRIPOS>ATOM
      1 N          21.4924  -23.4344   16.5207 N.pl3   1  UNL1       -0.3094
      2 H          22.3413  -23.4139   16.0224 H       1  UNL1        0.1491
      3 C          21.3084  -24.3472   17.5172 C.ar    1  UNL1        0.1275
      4 N          21.7958  -24.3103   18.7468 N.ar    1  UNL1       -0.2224
      5 C          21.5750  -25.2259   19.6531 C.ar    1  UNL1        0.1260
      6 O          22.0355  -25.1691   20.7766 O.2     1  UNL1       -0.3051
      7 C          20.6902  -26.3715   19.1763 C.2     1  UNL1       -0.2184
      8 S          20.3764  -25.8110   17.4552 S.2     1  UNL1       -0.2504
      9 C          19.3908  -26.4458   19.9806 C.3     1  UNL1       -0.0698
     10 C          18.2563  -26.8336   19.0675 C.2     1  UNL1        0.1946
     11 O          18.2311  -27.9382   18.5672 O.2     1  UNL1       -0.2776
     12 N          17.2698  -25.9531   18.8068 N.am    1  UNL1       -0.2860
     13 H          17.2485  -25.0859   19.2723 H       1  UNL1        0.1548
     14 C          16.2762  -26.2714   17.8746 C.ar    1  UNL1        0.0502
     15 C          15.1805  -27.0340   18.2583 C.ar    1  UNL1        0.0147
     16 C          14.1991  -27.3424   17.3370 C.ar    1  UNL1        0.0012
     17 C          14.3113  -26.9011   16.0311 C.ar    1  UNL1        0.0039
     18 C          15.4032  -26.1461   15.6448 C.ar    1  UNL1        0.0726
     19 C          16.3860  -25.8303   16.5626 C.ar    1  UNL1        0.0185
     20 C          15.5216  -25.6678   14.2206 C.3     1  UNL1        0.4186
     21 F          15.3115  -24.2855   14.1739 F       1  UNL1       -0.1659
     22 F          16.8000  -25.9619   13.7346 F       1  UNL1       -0.1659
     23 F          14.5630  -26.3122   13.4311 F       1  UNL1       -0.1659
     24 C          20.4268  -22.4844   16.1917 C.3     1  UNL1        0.1211
     25 C          21.0037  -21.0952   16.0979 C.ar    1  UNL1        0.0559
     26 C          22.0817  -20.8469   15.3014 C.ar    1  UNL1       -0.0238
     27 N          22.5870  -19.5735   15.2269 N.ar    1  UNL1       -0.3207
     28 C          22.0326  -18.5772   15.9416 C.ar    1  UNL1        0.3263
     29 O          22.4973  -17.4562   15.8671 O.2     1  UNL1       -0.2467
     30 N          20.9717  -18.8034   16.7378 N.ar    1  UNL1       -0.2748
     31 C          20.4410  -20.0384   16.8355 C.ar    1  UNL1        0.2590
     32 O          19.4803  -20.2380   17.5585 O.2     1  UNL1       -0.2674
     33 O          22.6445  -21.8448   14.5876 O.co2   1  UNL1       -0.8612
     34 H          23.3603  -19.3874   14.6468 H       1  UNL1        0.1692
     35 H          20.5803  -18.0613   17.2528 H       1  UNL1        0.1734
     36 C          18.6727  -23.5530   12.4462 C.ar    1  UNL1       -0.0225
     37 C          18.3684  -22.3376   13.0303 C.ar    1  UNL1       -0.0045
     38 C          18.9363  -21.9917   14.2422 C.ar    1  UNL1       -0.0027
     39 C          19.8078  -22.8614   14.8704 C.ar    1  UNL1       -0.0002
     40 C          20.1158  -24.0748   14.2841 C.ar    1  UNL1       -0.0027
     41 C          19.5450  -24.4224   13.0741 C.ar    1  UNL1       -0.0045
     42 C          18.3276  -25.4073   10.8365 C.3     1  UNL1        0.0047
     43 C          18.0540  -23.9299   11.1248 C.3     1  UNL1        0.0224
     44 C          16.5435  -23.6927   11.1828 C.3     1  UNL1        0.0047
@<TRIPOS>UNITY_ATOM_ATTR
7 1
charge -1
33 1
charge -1
@<TRIPOS>BOND
     1    42    43    1
     2    43    44    1
     3    43    36    1
     4    36    41   ar
     5    36    37   ar
     6    37    38   ar
     7    38    39   ar
     8    39    40   ar
     9    39    24    1
    10    40    41   ar
    11    24     1    1
    12    24    25    1
    13    25    31   ar
    14    25    26   ar
    15    26    33    1
    16    26    27   ar
    17    27    28   ar
    18    28    29    2
    19    28    30   ar
    20    30    31   ar
    21    31    32    2
    22     1     3    1
    23     3     8   ar
    24     3     4   ar
    25     4     5   ar
    26     5     6    2
    27     5     7   ar
    28     7     8   ar
    29     7     9    1
    30     9    10    1
    31    10    11    2
    32    10    12   am
    33    12    14    1
    34    14    19   ar
    35    14    15   ar
    36    15    16   ar
    37    16    17   ar
    38    17    18   ar
    39    18    19   ar
    40    18    20    1
    41    20    21    1
    42    20    22    1
    43    20    23    1
    44    27    34    1
    45    30    35    1
    46     1     2    1
    47    12    13    1
#	Name:			ZINC29802499
#	Creating user name:	trannguyen
#	Creation time:		Wed Dec  7 14:36:20 2022


#	Modifying user name:	trannguyen
#	Modification time:	Wed Dec  7 14:36:20 2022

@<TRIPOS>MOLECULE
ZINC29802499
 36 38 0 0 0
SMALL
GASTEIGER

@<TRIPOS>ATOM
      1 C          18.2141  -24.2399   13.8061 C.ar    1  UNL1        0.0510
      2 C          19.4202  -24.1617   14.5051 C.ar    1  UNL1        0.0211
      3 C          20.4131  -23.3101   14.0677 C.ar    1  UNL1        0.0894
      4 C          20.2140  -22.5304   12.9419 C.ar    1  UNL1        0.0166
      5 C          19.0234  -22.6070   12.2417 C.ar    1  UNL1       -0.0028
      6 C          18.0218  -23.4547   12.6684 C.ar    1  UNL1       -0.0174
      7 C          16.7235  -23.5331   11.9074 C.3     1  UNL1        0.0312
      8 N          16.1982  -24.7027   15.1158 N.am    1  UNL1       -0.2804
      9 C          17.1459  -25.1508   14.2687 C.2     1  UNL1        0.2492
     10 O          17.1220  -26.3041   13.8851 O.2     1  UNL1       -0.2698
     11 H          16.1732  -23.7513   15.3678 H       1  UNL1        0.1552
     12 C          13.0743  -26.5926   15.5454 C.ar    1  UNL1        0.0339
     13 C          13.3744  -27.3421   16.6684 C.ar    1  UNL1        0.0015
     14 C          14.6097  -27.2173   17.2767 C.ar    1  UNL1        0.0011
     15 C          15.5483  -26.3430   16.7645 C.ar    1  UNL1        0.0147
     16 C          15.2503  -25.5892   15.6368 C.ar    1  UNL1        0.0504
     17 C          14.0065  -25.7136   15.0308 C.ar    1  UNL1        0.0161
     18 C          11.7264  -26.7316   14.8858 C.3     1  UNL1        0.1328
     19 N          11.5526  -28.1115   14.4129 N.4     1  UNL1        0.2792
     20 H          11.9754  -28.7343   15.1013 H       1  UNL1        0.2070
     21 C           9.6170  -28.0870   12.9129 C.3     1  UNL1        0.0670
     22 C          10.1286  -28.4562   14.3068 C.3     1  UNL1        0.1059
     23 C          12.2415  -28.3197   13.1323 C.3     1  UNL1        0.1059
     24 C          13.1003  -29.5833   13.2146 C.3     1  UNL1        0.0670
     25 S          21.9357  -23.2092   14.9487 S.O2    1  UNL1       -0.0577
     26 O          22.9276  -23.7899   14.1130 O.2     1  UNL1       -0.1842
     27 O          21.6761  -23.6808   16.2637 O.2     1  UNL1       -0.1842
     28 N          22.3154  -21.6034   15.0881 N.pl3   1  UNL1       -0.5335
     29 C          21.4533  -20.7371   15.7704 C.ar    1  UNL1       -0.0775
     30 C          20.6300  -21.2242   16.7752 C.ar    1  UNL1       -0.0209
     31 C          19.7831  -20.3658   17.4508 C.ar    1  UNL1       -0.0017
     32 C          19.7465  -19.0237   17.1211 C.ar    1  UNL1        0.0030
     33 C          20.5605  -18.5321   16.1171 C.ar    1  UNL1        0.0350
     34 C          21.4155  -19.3847   15.4384 C.ar    1  UNL1        0.1167
     35 O          22.2159  -18.9027   14.4500 O.3     1  UNL1       -0.4733
     36 C          21.5906  -18.5889   13.2040 C.3     1  UNL1        0.2524
@<TRIPOS>UNITY_ATOM_ATTR
19 1
charge 1
28 1
charge -1
@<TRIPOS>BOND
     1    21    22    1
     2    22    19    1
     3    19    23    1
     4    19    18    1
     5    23    24    1
     6    18    12    1
     7    12    17   ar
     8    12    13   ar
     9    13    14   ar
    10    14    15   ar
    11    15    16   ar
    12    16    17   ar
    13    16     8    1
    14     8     9   am
    15     9    10    2
    16     9     1    1
    17     1     6   ar
    18     1     2   ar
    19     2     3   ar
    20     3     4   ar
    21     3    25    1
    22     4     5   ar
    23     5     6   ar
    24     6     7    1
    25    25    26    2
    26    25    27    2
    27    25    28    1
    28    28    29    1
    29    29    34   ar
    30    29    30   ar
    31    30    31   ar
    32    31    32   ar
    33    32    33   ar
    34    33    34   ar
    35    34    35    1
    36    35    36    1
    37    19    20    1
    38     8    11    1
#	Name:			ZINC29884620
#	Creating user name:	trannguyen
#	Creation time:		Wed Dec  7 14:36:20 2022


#	Modifying user name:	trannguyen
#	Modification time:	Wed Dec  7 14:36:20 2022

@<TRIPOS>MOLECULE
ZINC29884620
 36 39 0 0 0
SMALL
GASTEIGER

@<TRIPOS>ATOM
      1 C          15.6816  -24.5764   13.7200 C.ar    1  UNL1        0.0002
      2 C          16.1632  -23.4411   13.0870 C.ar    1  UNL1        0.0013
      3 C          17.5213  -23.2324   12.9648 C.ar    1  UNL1        0.0148
      4 C          18.4175  -24.1629   13.4769 C.ar    1  UNL1        0.0527
      5 C          17.9329  -25.3136   14.1185 C.ar    1  UNL1        0.0667
      6 C          16.5543  -25.5099   14.2343 C.ar    1  UNL1        0.0058
      7 C          18.8725  -26.3057   14.6721 C.2     1  UNL1        0.2471
      8 O          19.4810  -26.0614   15.6962 O.2     1  UNL1       -0.2701
      9 N          19.0572  -27.4833   14.0431 N.am    1  UNL1       -0.3008
     10 H          18.5646  -27.6810   13.2139 H       1  UNL1        0.1497
     11 C          19.9909  -28.4689   14.5932 C.3     1  UNL1        0.0915
     12 C          21.1427  -28.6849   13.6093 C.3     1  UNL1        0.0432
     13 C          21.0229  -27.6858   12.4567 C.3     1  UNL1        0.1011
     14 N          22.3613  -27.3225   11.9844 N.am    1  UNL1       -0.2469
     15 C          23.0043  -27.9446   10.9728 C.2     1  UNL1        0.2107
     16 O          22.6020  -28.8743   10.3069 O.2     1  UNL1       -0.2763
     17 C          24.3291  -27.2363   10.8483 C.3     1  UNL1       -0.0137
     18 C          24.4931  -26.6140    9.4554 C.3     1  UNL1       -0.0115
     19 C          26.0072  -26.7627    9.1543 C.3     1  UNL1       -0.0012
     20 C          26.3476  -28.1426    9.7720 C.3     1  UNL1       -0.0012
     21 C          25.4977  -28.2016   11.0607 C.3     1  UNL1       -0.0115
     22 N          24.2923  -26.2049   11.8872 N.am    1  UNL1       -0.6124
     23 C          23.0969  -26.3283   12.4984 C.2     1  UNL1        0.1376
     24 O          22.7297  -25.6193   13.4147 O.2     1  UNL1       -0.2967
     25 N          19.7855  -23.9551   13.3552 N.pl3   1  UNL1       -0.3124
     26 H          20.3679  -24.6834   13.0395 H       1  UNL1        0.1522
     27 C          20.3359  -22.7104   13.6815 C.ar    1  UNL1        0.0485
     28 C          20.9777  -21.9574   12.7068 C.ar    1  UNL1        0.0177
     29 C          21.5159  -20.7270   13.0285 C.ar    1  UNL1        0.0384
     30 C          21.4253  -20.2481   14.3271 C.ar    1  UNL1        0.1444
     31 C          20.7890  -21.0017   15.3025 C.ar    1  UNL1        0.0384
     32 C          20.2457  -22.2300   14.9815 C.ar    1  UNL1        0.0177
     33 O          21.9601  -19.0386   14.6441 O.3     1  UNL1       -0.4236
     34 C          21.5474  -18.4505   15.8794 C.3     1  UNL1        0.5087
     35 F          22.5390  -17.5740   16.3329 F       1  UNL1       -0.1550
     36 F          20.3549  -17.7452   15.6848 F       1  UNL1       -0.1550
@<TRIPOS>UNITY_ATOM_ATTR
22 1
charge -1
@<TRIPOS>BOND
     1     1     6   ar
     2     1     2   ar
     3     2     3   ar
     4     3     4   ar
     5     4     5   ar
     6     4    25    1
     7     5     6   ar
     8     5     7    1
     9     7     8    2
    10     7     9   am
    11     9    11    1
    12    11    12    1
    13    12    13    1
    14    13    14    1
    15    14    23   am
    16    14    15   am
    17    15    16    2
    18    15    17    1
    19    17    21    1
    20    17    18    1
    21    17    22    1
    22    18    19    1
    23    19    20    1
    24    20    21    1
    25    22    23    1
    26    23    24    2
    27    25    27    1
    28    27    32   ar
    29    27    28   ar
    30    28    29   ar
    31    29    30   ar
    32    30    31   ar
    33    30    33    1
    34    31    32   ar
    35    33    34    1
    36    34    35    1
    37    34    36    1
    38     9    10    1
    39    25    26    1
#	Name:			ZINC29976203
#	Creating user name:	trannguyen
#	Creation time:		Wed Dec  7 14:36:20 2022


#	Modifying user name:	trannguyen
#	Modification time:	Wed Dec  7 14:36:20 2022

@<TRIPOS>MOLECULE
ZINC29976203
 36 37 0 0 0
SMALL
GASTEIGER

@<TRIPOS>ATOM
      1 C          20.4965  -21.7962   18.4616 C.3     1  UNL1        0.2930
      2 C          20.6066  -20.8226   17.3167 C.2     1  UNL1        0.2708
      3 O          19.8405  -19.8855   17.2418 O.2     1  UNL1       -0.2707
      4 N          21.5564  -20.9933   16.3758 N.am    1  UNL1       -0.2807
      5 H          22.2193  -21.7149   16.4708 H       1  UNL1        0.1550
      6 C          21.6002  -20.1487   15.2692 C.ar    1  UNL1        0.0548
      7 C          22.0714  -18.8493   15.4013 C.ar    1  UNL1        0.0148
      8 C          22.1179  -18.0155   14.3024 C.ar    1  UNL1        0.0013
      9 C          21.6873  -18.4629   13.0638 C.ar    1  UNL1        0.0002
     10 C          21.2116  -19.7476   12.9149 C.ar    1  UNL1        0.0058
     11 C          21.1630  -20.6047   14.0167 C.ar    1  UNL1        0.0668
     12 C          20.6544  -21.9810   13.8644 C.2     1  UNL1        0.2471
     13 O          21.2705  -22.9133   14.3437 O.2     1  UNL1       -0.2701
     14 N          19.5070  -22.2051   13.1939 N.am    1  UNL1       -0.3008
     15 H          19.0081  -21.4502   12.8058 H       1  UNL1        0.1497
     16 C          19.0019  -23.5719   13.0425 C.3     1  UNL1        0.0896
     17 C          17.7596  -23.5607   12.1495 C.3     1  UNL1        0.0196
     18 C          17.5867  -24.9347   11.4990 C.3     1  UNL1        0.0017
     19 C          16.5263  -23.2379   12.9954 C.3     1  UNL1        0.0017
     20 O          21.5318  -22.7755   18.3555 O.3     1  UNL1       -0.4350
     21 C          21.1526  -24.0708   18.3578 C.2     1  UNL1        0.3475
     22 O          21.9823  -24.9474   18.5132 O.2     1  UNL1       -0.2443
     23 C          19.3512  -25.3792   20.4700 C.3     1  UNL1        0.0318
     24 C          18.9113  -25.0004   19.0793 C.ar    1  UNL1       -0.0078
     25 C          17.6307  -25.2236   18.6520 C.ar    1  UNL1        0.0178
     26 C          17.2854  -24.8555   17.3686 C.ar    1  UNL1        0.0806
     27 S          18.7595  -24.1956   16.7384 S.2     1  UNL1       -0.0661
     28 C          19.7890  -24.4099   18.1794 C.ar    1  UNL1        0.1023
     29 N          16.0571  -24.9870   16.7335 N.am    1  UNL1       -0.2790
     30 C          15.8371  -26.0228   15.8997 C.2     1  UNL1        0.2255
     31 O          16.7116  -26.8400   15.7039 O.2     1  UNL1       -0.2748
     32 H          15.3473  -24.3236   16.8923 H       1  UNL1        0.1553
     33 C          14.5024  -26.1689   15.2155 C.3     1  UNL1        0.0692
     34 C          14.7076  -26.7546   13.8170 C.3     1  UNL1        0.0091
     35 C          13.6093  -27.1035   16.0338 C.3     1  UNL1        0.0091
     36 C          13.8352  -24.7968   15.1008 C.3     1  UNL1        0.0091
@<TRIPOS>BOND
     1    23    24    1
     2    24    28   ar
     3    24    25   ar
     4    25    26   ar
     5    26    27   ar
     6    26    29    1
     7    27    28   ar
     8    28    21    1
     9    21    22    2
    10    21    20    1
    11    20     1    1
    12     1     2    1
    13     2     3    2
    14     2     4   am
    15     4     6    1
    16     6    11   ar
    17     6     7   ar
    18     7     8   ar
    19     8     9   ar
    20     9    10   ar
    21    10    11   ar
    22    11    12    1
    23    12    13    2
    24    12    14   am
    25    14    16    1
    26    16    17    1
    27    17    18    1
    28    17    19    1
    29    29    30   am
    30    30    31    2
    31    30    33    1
    32    33    34    1
    33    33    35    1
    34    33    36    1
    35     4     5    1
    36    14    15    1
    37    29    32    1
#	Name:			ZINC30016885
#	Creating user name:	trannguyen
#	Creation time:		Wed Dec  7 14:36:20 2022


#	Modifying user name:	trannguyen
#	Modification time:	Wed Dec  7 14:36:20 2022

@<TRIPOS>MOLECULE
ZINC30016885
 39 42 0 0 0
SMALL
GASTEIGER

@<TRIPOS>ATOM
      1 C          23.9258  -27.2647   11.6885 C.ar    1  UNL1        0.0509
      2 C          24.7768  -26.9361   10.6381 C.ar    1  UNL1        0.0178
      3 C          25.2076  -25.6359   10.4712 C.ar    1  UNL1        0.0380
      4 C          24.7890  -24.6451   11.3470 C.ar    1  UNL1        0.1380
      5 C          23.9361  -24.9693   12.4103 C.ar    1  UNL1        0.0882
      6 C          23.5045  -26.2875   12.5736 C.ar    1  UNL1        0.0222
      7 O          25.2088  -23.3656   11.1775 O.3     1  UNL1       -0.5054
      8 H          25.7791  -23.1499   10.4661 H       1  UNL1        0.2922
      9 C          22.6414  -29.1316   10.9599 C.2     1  UNL1        0.2497
     10 O          22.1738  -28.4481   10.0699 O.2     1  UNL1       -0.2698
     11 N          23.4941  -28.5871   11.8504 N.am    1  UNL1       -0.2804
     12 H          23.8135  -29.1191   12.6147 H       1  UNL1        0.1552
     13 C          22.8999  -32.8830   10.9965 C.ar    1  UNL1        0.1419
     14 C          23.2476  -31.5460   10.8969 C.ar    1  UNL1        0.0416
     15 C          22.2749  -30.5599   11.0653 C.ar    1  UNL1        0.0597
     16 C          20.9566  -30.9255   11.3391 C.ar    1  UNL1        0.0416
     17 C          20.6164  -32.2651   11.4309 C.ar    1  UNL1        0.1419
     18 C          21.5866  -33.2423   11.2632 C.ar    1  UNL1        0.0738
     19 C          24.8455  -33.6082    9.8383 C.3     1  UNL1        0.2525
     20 O          23.8464  -33.8445   10.8322 O.3     1  UNL1       -0.4713
     21 O          19.3313  -32.6224   11.6915 O.3     1  UNL1       -0.4713
     22 C          18.6032  -33.2446   10.6308 C.3     1  UNL1        0.2525
     23 C          23.4915  -23.9219   13.3496 C.2     1  UNL1        0.2490
     24 O          23.9331  -23.8934   14.4821 O.2     1  UNL1       -0.2700
     25 N          22.5955  -22.9966   12.9522 N.am    1  UNL1       -0.2954
     26 H          22.2378  -23.0197   12.0352 H       1  UNL1        0.1499
     27 C          22.1539  -21.9567   13.8848 C.3     1  UNL1        0.1534
     28 C          20.8589  -22.4008   14.5679 C.3     1  UNL1        0.1332
     29 N          20.2538  -21.2559   15.2616 N.4     1  UNL1        0.2783
     30 C          21.1457  -20.0691   15.2083 C.3     1  UNL1        0.1058
     31 C          20.6751  -19.1728   16.3740 C.3     1  UNL1        0.0670
     32 C          19.9870  -20.1385   17.3655 C.3     1  UNL1        0.0670
     33 C          20.1012  -21.5330   16.7131 C.3     1  UNL1        0.1058
     34 H          19.3591  -21.0918   14.8003 H       1  UNL1        0.2070
     35 C          19.8985  -22.9250   13.5317 C.ar    1  UNL1        0.1734
     36 C          18.9460  -22.2085   12.9081 C.ar    1  UNL1        0.0420
     37 C          18.2852  -23.0897   12.0217 C.ar    1  UNL1        0.0436
     38 C          18.8680  -24.2939   12.1626 C.ar    1  UNL1        0.1794
     39 O          19.8445  -24.1881   13.0786 O.2     1  UNL1       -0.4490
@<TRIPOS>UNITY_ATOM_ATTR
29 1
charge 1
@<TRIPOS>BOND
     1    19    20    1
     2    20    13    1
     3    13    18   ar
     4    13    14   ar
     5    14    15   ar
     6    15    16   ar
     7    15     9    1
     8    16    17   ar
     9    17    18   ar
    10    17    21    1
    11    21    22    1
    12     9    10    2
    13     9    11   am
    14    11     1    1
    15     1     6   ar
    16     1     2   ar
    17     2     3   ar
    18     3     4   ar
    19     4     5   ar
    20     4     7    1
    21     5     6   ar
    22     5    23    1
    23    23    24    2
    24    23    25   am
    25    25    27    1
    26    27    28    1
    27    28    35    1
    28    28    29    1
    29    35    39   ar
    30    35    36   ar
    31    36    37   ar
    32    37    38   ar
    33    38    39   ar
    34    29    33    1
    35    29    30    1
    36    30    31    1
    37    31    32    1
    38    32    33    1
    39    11    12    1
    40    25    26    1
    41    29    34    1
    42     7     8    1
#	Name:			ZINC30222980
#	Creating user name:	trannguyen
#	Creation time:		Wed Dec  7 14:36:19 2022


#	Modifying user name:	trannguyen
#	Modification time:	Wed Dec  7 14:36:19 2022

@<TRIPOS>MOLECULE
ZINC30222980
 33 34 0 0 0
SMALL
GASTEIGER

@<TRIPOS>ATOM
      1 N          21.3386  -26.7901   16.4174 N.4     1  UNL1        0.2852
      2 H          22.1737  -26.2047   16.3972 H       1  UNL1        0.2075
      3 C          22.2288  -27.9104   18.4047 C.3     1  UNL1        0.0670
      4 C          21.7162  -28.0956   16.9751 C.3     1  UNL1        0.1063
      5 C          20.8502  -26.9280   15.0389 C.3     1  UNL1        0.1335
      6 C          21.0659  -28.3659   14.5628 C.3     1  UNL1        0.0711
      7 C          21.6066  -25.9829   14.1412 C.2     1  UNL1        0.2757
      8 O          21.0387  -25.0333   13.6443 O.2     1  UNL1       -0.2686
      9 N          22.9141  -26.1929   13.8903 N.am    1  UNL1       -0.2789
     10 H          23.3617  -26.9932   14.2486 H       1  UNL1        0.1551
     11 C          23.6364  -25.2722   13.1193 C.ar    1  UNL1        0.0563
     12 C          23.6504  -23.9309   13.4705 C.ar    1  UNL1        0.0152
     13 C          24.3679  -23.0251   12.7116 C.ar    1  UNL1        0.0013
     14 C          25.0647  -23.4501   11.5952 C.ar    1  UNL1        0.0006
     15 C          25.0520  -24.7840   11.2340 C.ar    1  UNL1        0.0076
     16 C          24.3388  -25.7014   11.9929 C.ar    1  UNL1        0.0437
     17 S          24.3200  -27.4027   11.5349 S.3     1  UNL1       -0.0429
     18 C          26.0736  -27.8650   11.4917 C.3     1  UNL1        0.3707
     19 F          26.6412  -27.4291   10.2897 F       1  UNL1       -0.1852
     20 F          26.7402  -27.2666   12.5663 F       1  UNL1       -0.1852
     21 C          20.3408  -26.1241   17.2652 C.3     1  UNL1        0.1920
     22 C          20.6363  -24.6474   17.3233 C.2     1  UNL1        0.2821
     23 O          21.5475  -24.2380   18.0113 O.2     1  UNL1       -0.2684
     24 N          19.8883  -23.7820   16.6108 N.am    1  UNL1       -0.2791
     25 H          19.1080  -24.1059   16.1055 H       1  UNL1        0.1550
     26 C          20.2211  -22.4212   16.5892 C.ar    1  UNL1        0.0507
     27 C          19.6668  -21.5557   17.5229 C.ar    1  UNL1        0.0178
     28 C          19.9956  -20.2147   17.5014 C.ar    1  UNL1        0.0382
     29 C          20.8795  -19.7321   16.5473 C.ar    1  UNL1        0.1388
     30 C          21.4337  -20.5963   15.6143 C.ar    1  UNL1        0.0382
     31 C          21.1057  -21.9374   15.6346 C.ar    1  UNL1        0.0178
     32 O          21.2024  -18.4115   16.5264 O.3     1  UNL1       -0.4714
     33 C          22.1946  -18.0011   15.5833 C.3     1  UNL1        0.2525
@<TRIPOS>UNITY_ATOM_ATTR
1 1
charge 1
@<TRIPOS>BOND
     1     3     4    1
     2     4     1    1
     3     1    21    1
     4     1     5    1
     5    21    22    1
     6    22    23    2
     7    22    24   am
     8    24    26    1
     9    26    31   ar
    10    26    27   ar
    11    27    28   ar
    12    28    29   ar
    13    29    30   ar
    14    29    32    1
    15    30    31   ar
    16    32    33    1
    17     5     6    1
    18     5     7    1
    19     7     8    2
    20     7     9   am
    21     9    11    1
    22    11    16   ar
    23    11    12   ar
    24    12    13   ar
    25    13    14   ar
    26    14    15   ar
    27    15    16   ar
    28    16    17    1
    29    17    18    1
    30    18    19    1
    31    18    20    1
    32     1     2    1
    33    24    25    1
    34     9    10    1
#	Name:			ZINC30454266
#	Creating user name:	trannguyen
#	Creation time:		Wed Dec  7 14:36:20 2022


#	Modifying user name:	trannguyen
#	Modification time:	Wed Dec  7 14:36:20 2022

@<TRIPOS>MOLECULE
ZINC30454266
 31 33 0 0 0
SMALL
GASTEIGER

@<TRIPOS>ATOM
      1 N          18.2444  -24.9030   18.3066 N.pl3   1  UNL1       -0.3269
      2 H          18.0473  -24.2882   19.0498 H       1  UNL1        0.1472
      3 C          17.1978  -25.4662   17.5682 C.ar    1  UNL1        0.0482
      4 C          16.3452  -26.3868   18.1632 C.ar    1  UNL1        0.0176
      5 C          15.3081  -26.9404   17.4366 C.ar    1  UNL1        0.0413
      6 C          15.1232  -26.5861   16.1102 C.ar    1  UNL1        0.1725
      7 C          15.9788  -25.6680   15.5095 C.ar    1  UNL1        0.1735
      8 C          17.0152  -25.1090   16.2392 C.ar    1  UNL1        0.0543
      9 O          14.1049  -27.1364   15.3944 O.3     1  UNL1       -0.4684
     10 C          12.8010  -26.5864   15.5932 C.3     1  UNL1        0.2526
     11 O          15.7982  -25.3199   14.2074 O.3     1  UNL1       -0.4697
     12 C          15.4437  -23.9613   13.9421 C.3     1  UNL1        0.2348
     13 C          16.1585  -23.4856   12.6757 C.3     1  UNL1        0.1588
     14 C          16.6328  -24.7030   11.8535 C.3     1  UNL1        0.0360
     15 C          18.0232  -24.2320   11.3422 C.3     1  UNL1        0.0347
     16 C          18.5011  -23.3700   12.5377 C.3     1  UNL1        0.1423
     17 O          17.3174  -22.7219   13.0297 O.3     1  UNL1       -0.3524
     18 C          19.6335  -25.2281   17.9736 C.3     1  UNL1        0.1470
     19 C          20.3700  -25.6748   19.2381 C.3     1  UNL1        0.0311
     20 N          19.6041  -23.1261   16.6699 N.am    1  UNL1       -0.2826
     21 C          20.3114  -24.0098   17.4015 C.2     1  UNL1        0.2439
     22 O          21.4936  -23.8245   17.5995 O.2     1  UNL1       -0.2730
     23 H          18.6646  -23.3145   16.4438 H       1  UNL1        0.1549
     24 C          21.3926  -19.5969   15.3650 C.ar    1  UNL1       -0.0221
     25 C          21.5184  -20.7522   14.6157 C.ar    1  UNL1       -0.0030
     26 C          20.9269  -21.9239   15.0457 C.ar    1  UNL1        0.0143
     27 C          20.2049  -21.9409   16.2318 C.ar    1  UNL1        0.0503
     28 C          20.0756  -20.7775   16.9792 C.ar    1  UNL1        0.0143
     29 C          20.6742  -19.6105   16.5466 C.ar    1  UNL1       -0.0030
     30 C          21.8361  -18.1725   13.3843 C.3     1  UNL1        0.0050
     31 C          22.0401  -18.3205   14.8934 C.3     1  UNL1        0.0264
@<TRIPOS>BOND
     1    30    31    1
     2    31    24    1
     3    24    29   ar
     4    24    25   ar
     5    25    26   ar
     6    26    27   ar
     7    27    28   ar
     8    27    20    1
     9    28    29   ar
    10    20    21   am
    11    21    22    2
    12    21    18    1
    13    18    19    1
    14    18     1    1
    15     1     3    1
    16     3     8   ar
    17     3     4   ar
    18     4     5   ar
    19     5     6   ar
    20     6     7   ar
    21     6     9    1
    22     7     8   ar
    23     7    11    1
    24    11    12    1
    25    12    13    1
    26    13    17    1
    27    13    14    1
    28    14    15    1
    29    15    16    1
    30    16    17    1
    31     9    10    1
    32    20    23    1
    33     1     2    1
#	Name:			ZINC30626346
#	Creating user name:	trannguyen
#	Creation time:		Wed Dec  7 14:36:19 2022


#	Modifying user name:	trannguyen
#	Modification time:	Wed Dec  7 14:36:19 2022

@<TRIPOS>MOLECULE
ZINC30626346
 38 40 0 0 0
SMALL
GASTEIGER

@<TRIPOS>ATOM
      1 C          13.9148  -25.3982   15.2459 C.ar    1  UNL1        0.2042
      2 N          13.8795  -24.1585   14.8462 N.ar    1  UNL1       -0.1274
      3 N          15.0037  -23.8341   14.3145 N.ar    1  UNL1       -0.1207
      4 C          15.8214  -24.8609   14.3391 C.ar    1  UNL1        0.2095
      5 N          15.1529  -25.8903   14.9373 N.ar    1  UNL1       -0.2242
      6 N          15.6233  -27.1500   15.1776 N.pl3   1  UNL1       -0.2947
      7 H          15.0467  -27.8148   15.6192 H       1  UNL1        0.1627
      8 H          16.5387  -27.3932   14.9093 H       1  UNL1        0.1627
      9 C          12.7981  -26.1504   15.9227 C.3     1  UNL1        0.2719
     10 O          11.7313  -26.3562   14.9945 O.3     1  UNL1       -0.4672
     11 C          11.4293  -30.1000   13.2879 C.ar    1  UNL1       -0.0223
     12 C          12.2472  -29.9058   14.3858 C.ar    1  UNL1       -0.0012
     13 C          12.3501  -28.6532   14.9590 C.ar    1  UNL1        0.0366
     14 C          11.6319  -27.5894   14.4324 C.ar    1  UNL1        0.1392
     15 C          10.8075  -27.7881   13.3344 C.ar    1  UNL1        0.0366
     16 C          10.7128  -29.0413   12.7609 C.ar    1  UNL1       -0.0012
     17 C          12.6297  -31.8115   11.9541 C.3     1  UNL1        0.0047
     18 C          11.3190  -31.4675   12.6645 C.3     1  UNL1        0.0224
     19 C          11.0427  -32.5044   13.7551 C.3     1  UNL1        0.0047
     20 S          17.4720  -24.9008   13.7235 S.3     1  UNL1       -0.0658
     21 C          17.4997  -23.3457   12.7977 C.3     1  UNL1        0.1308
     22 C          18.7883  -22.6165   13.0791 C.2     1  UNL1        0.2327
     23 O          19.0974  -21.6521   12.4118 O.2     1  UNL1       -0.2742
     24 N          19.5970  -23.0361   14.0723 N.am    1  UNL1       -0.3014
     25 H          19.3459  -23.8189   14.6139 H       1  UNL1        0.1497
     26 C          20.8495  -22.3273   14.3458 C.3     1  UNL1        0.0971
     27 C          21.8950  -23.3192   14.8600 C.3     1  UNL1        0.0263
     28 C          20.6087  -21.2659   15.3881 C.ar    1  UNL1        0.0295
     29 C          20.1737  -21.6222   16.6501 C.ar    1  UNL1        0.0003
     30 C          19.9568  -20.6492   17.6081 C.ar    1  UNL1       -0.0001
     31 C          20.1652  -19.3167   17.3030 C.ar    1  UNL1        0.0031
     32 C          20.5951  -18.9549   16.0412 C.ar    1  UNL1        0.0366
     33 C          20.8181  -19.9298   15.0795 C.ar    1  UNL1        0.1362
     34 O          21.2415  -19.5764   13.8373 O.3     1  UNL1       -0.4717
     35 C          21.8752  -18.3024   13.7060 C.3     1  UNL1        0.2525
     36 C          17.3977  -23.6418   11.3001 C.3     1  UNL1        0.0192
     37 C          15.9261  -23.7917   10.9090 C.3     1  UNL1        0.0014
     38 C          18.1438  -24.9397   10.9849 C.3     1  UNL1        0.0014
@<TRIPOS>BOND
     1    17    18    1
     2    18    19    1
     3    18    11    1
     4    11    16   ar
     5    11    12   ar
     6    12    13   ar
     7    13    14   ar
     8    14    15   ar
     9    14    10    1
    10    15    16   ar
    11    10     9    1
    12     9     1    1
    13     1     5   ar
    14     1     2   ar
    15     2     3   ar
    16     3     4   ar
    17     4     5   ar
    18     4    20    1
    19     5     6    1
    20    20    21    1
    21    21    36    1
    22    21    22    1
    23    36    37    1
    24    36    38    1
    25    22    23    2
    26    22    24   am
    27    24    26    1
    28    26    27    1
    29    26    28    1
    30    28    33   ar
    31    28    29   ar
    32    29    30   ar
    33    30    31   ar
    34    31    32   ar
    35    32    33   ar
    36    33    34    1
    37    34    35    1
    38     6     7    1
    39     6     8    1
    40    24    25    1
#	Name:			ZINC30649330
#	Creating user name:	trannguyen
#	Creation time:		Wed Dec  7 14:36:19 2022


#	Modifying user name:	trannguyen
#	Modification time:	Wed Dec  7 14:36:19 2022

@<TRIPOS>MOLECULE
ZINC30649330
 29 30 0 0 0
SMALL
GASTEIGER

@<TRIPOS>ATOM
      1 C          20.2469  -25.7246   18.2380 C.3     1  UNL1        0.1302
      2 C          20.6194  -24.3691   17.6951 C.2     1  UNL1        0.2362
      3 O          21.7529  -23.9560   17.8208 O.2     1  UNL1       -0.2739
      4 N          19.6917  -23.6134   17.0747 N.am    1  UNL1       -0.2831
      5 H          18.7937  -23.9787   16.9034 H       1  UNL1        0.1549
      6 C          20.0053  -22.3082   16.6738 C.ar    1  UNL1        0.0536
      7 C          19.8714  -21.2558   17.5696 C.ar    1  UNL1        0.0180
      8 C          20.1849  -19.9684   17.1773 C.ar    1  UNL1        0.0413
      9 C          20.6234  -19.7235   15.8859 C.ar    1  UNL1        0.1725
     10 C          20.7536  -20.7754   14.9842 C.ar    1  UNL1        0.1736
     11 C          20.4444  -22.0663   15.3794 C.ar    1  UNL1        0.0547
     12 O          21.1843  -20.5361   13.7168 O.3     1  UNL1       -0.4683
     13 C          21.7362  -21.6419   12.9995 C.3     1  UNL1        0.2526
     14 O          20.9263  -18.4546   15.4994 O.3     1  UNL1       -0.4684
     15 C          22.2587  -18.0015   15.7472 C.3     1  UNL1        0.2526
     16 C          20.8834  -25.9145   19.6163 C.3     1  UNL1        0.0191
     17 C          19.8160  -25.7430   20.6990 C.3     1  UNL1        0.0014
     18 C          21.4851  -27.3180   19.7111 C.3     1  UNL1        0.0014
     19 S          20.8480  -27.0132   17.1117 S.3     1  UNL1       -0.0782
     20 C          19.8230  -25.3774   13.1180 C.ar    1  UNL1        0.1829
     21 N          21.0905  -25.2924   13.4715 N.ar    1  UNL1       -0.1252
     22 N          21.4932  -25.7707   14.6970 N.ar    1  UNL1       -0.1331
     23 C          20.6112  -26.3222   15.5082 C.ar    1  UNL1        0.1610
     24 S          19.1112  -26.1743   14.5496 S.2     1  UNL1       -0.0245
     25 N          19.2057  -24.9586   11.9451 N.pl3   1  UNL1       -0.3116
     26 H          19.0575  -25.5980   11.2114 H       1  UNL1        0.1487
     27 C          18.7758  -23.5656   11.8007 C.3     1  UNL1        0.0887
     28 C          16.4003  -24.3369   11.7357 C.3     1  UNL1        0.0018
     29 C          17.3887  -23.3928   12.4230 C.3     1  UNL1        0.0212
@<TRIPOS>BOND
     1    28    29    1
     2    29    27    1
     3    27    25    1
     4    25    20    1
     5    20    24   ar
     6    20    21   ar
     7    21    22   ar
     8    22    23   ar
     9    23    24   ar
    10    23    19    1
    11    19     1    1
    12     1    16    1
    13     1     2    1
    14    16    17    1
    15    16    18    1
    16     2     3    2
    17     2     4   am
    18     4     6    1
    19     6    11   ar
    20     6     7   ar
    21     7     8   ar
    22     8     9   ar
    23     9    10   ar
    24     9    14    1
    25    10    11   ar
    26    10    12    1
    27    12    13    1
    28    14    15    1
    29    25    26    1
    30     4     5    1
#	Name:			ZINC30736603
#	Creating user name:	trannguyen
#	Creation time:		Wed Dec  7 14:36:19 2022


#	Modifying user name:	trannguyen
#	Modification time:	Wed Dec  7 14:36:19 2022

@<TRIPOS>MOLECULE
ZINC30736603
 28 30 0 0 0
SMALL
GASTEIGER

@<TRIPOS>ATOM
      1 C          21.6229  -20.8431   14.9681 C.3     1  UNL1        0.1299
      2 C          20.7320  -21.8683   15.6208 C.2     1  UNL1        0.2325
      3 O          19.6211  -22.0748   15.1802 O.2     1  UNL1       -0.2742
      4 N          21.1698  -22.5558   16.6942 N.am    1  UNL1       -0.3053
      5 H          22.0716  -22.3882   17.0518 H       1  UNL1        0.1494
      6 C          20.3036  -23.5526   17.3288 C.3     1  UNL1        0.0716
      7 C          21.1186  -24.3720   18.3314 C.3     1  UNL1        0.0196
      8 C          20.2141  -25.4130   18.9941 C.3     1  UNL1        0.0017
      9 C          19.0709  -24.7046   19.7240 C.3     1  UNL1        0.0001
     10 C          18.2560  -23.8851   18.7213 C.3     1  UNL1        0.0017
     11 C          19.1605  -22.8443   18.0586 C.3     1  UNL1        0.0196
     12 C          20.8398  -19.0547   16.5272 C.3     1  UNL1        0.0014
     13 C          20.9654  -19.4645   15.0585 C.3     1  UNL1        0.0191
     14 C          21.8246  -18.4399   14.3149 C.3     1  UNL1        0.0014
     15 S          21.8726  -21.2807   13.2255 S.3     1  UNL1       -0.0782
     16 C          22.5503  -22.9061   13.2872 C.ar    1  UNL1        0.1610
     17 N          22.0599  -23.9957   13.8462 N.ar    1  UNL1       -0.1331
     18 N          22.7602  -25.1775   13.7719 N.ar    1  UNL1       -0.1252
     19 C          23.9236  -25.2132   13.1522 C.ar    1  UNL1        0.1829
     20 S          24.0889  -23.5173   12.6161 S.2     1  UNL1       -0.0245
     21 N          24.7898  -26.2842   12.9659 N.pl3   1  UNL1       -0.3095
     22 H          24.8549  -26.9893   13.6499 H       1  UNL1        0.1488
     23 C          25.6059  -26.3636   11.7520 C.3     1  UNL1        0.1185
     24 C          24.6946  -26.5363   10.5351 C.3     1  UNL1        0.1348
     25 C          24.0191  -27.9252   10.5618 C.3     1  UNL1        0.0339
     26 C          23.9832  -28.3539    9.0779 C.3     1  UNL1        0.0346
     27 C          24.6413  -27.1732    8.3301 C.3     1  UNL1        0.1422
     28 O          25.4733  -26.5280    9.3187 O.3     1  UNL1       -0.3545
@<TRIPOS>BOND
     1    12    13    1
     2    13    14    1
     3    13     1    1
     4     1     2    1
     5     1    15    1
     6     2     3    2
     7     2     4   am
     8     4     6    1
     9     6    11    1
    10     6     7    1
    11     7     8    1
    12     8     9    1
    13     9    10    1
    14    10    11    1
    15    15    16    1
    16    16    20   ar
    17    16    17   ar
    18    17    18   ar
    19    18    19   ar
    20    19    20   ar
    21    19    21    1
    22    21    23    1
    23    23    24    1
    24    24    28    1
    25    24    25    1
    26    25    26    1
    27    26    27    1
    28    27    28    1
    29     4     5    1
    30    21    22    1
#	Name:			ZINC30737623
#	Creating user name:	trannguyen
#	Creation time:		Wed Dec  7 14:36:19 2022


#	Modifying user name:	trannguyen
#	Modification time:	Wed Dec  7 14:36:19 2022

@<TRIPOS>MOLECULE
ZINC30737623
 38 40 0 0 0
SMALL
GASTEIGER

@<TRIPOS>ATOM
      1 C          20.0165  -21.8904   15.8411 C.2     1  UNL1        0.0743
      2 C          19.5079  -22.8519   16.6304 C.2     1  UNL1        0.0290
      3 N          18.9493  -23.9798   16.0960 N.pl3   1  UNL1       -0.3108
      4 C          18.5667  -24.0029   14.7732 C.2     1  UNL1        0.0812
      5 C          19.0442  -23.0758   13.9003 C.2     1  UNL1        0.0766
      6 C          20.0049  -22.0094   14.3441 C.3     1  UNL1        0.1204
      7 C          19.5545  -22.6849   18.1273 C.3     1  UNL1        0.0471
      8 H          18.8202  -24.7774   16.6584 H       1  UNL1        0.1524
      9 C          21.3899  -22.3588   13.8638 C.ar    1  UNL1        0.1317
     10 C          22.0170  -21.8127   12.8065 C.ar    1  UNL1        0.0369
     11 C          23.2862  -22.4296   12.7195 C.ar    1  UNL1        0.0435
     12 C          23.3587  -23.3159   13.7288 C.ar    1  UNL1        0.1792
     13 O          22.2073  -23.2686   14.4186 O.2     1  UNL1       -0.4540
     14 C          20.5774  -20.7370   16.4355 C.2     1  UNL1        0.3388
     15 O          19.8993  -20.0373   17.1645 O.2     1  UNL1       -0.2452
     16 O          21.8648  -20.4121   16.1946 O.3     1  UNL1       -0.4456
     17 C          21.7384  -18.6636   14.5311 C.3     1  UNL1        0.0513
     18 C          22.1522  -19.0326   15.9571 C.3     1  UNL1        0.2089
     19 C          18.6236  -23.1172   12.5320 C.1     1  UNL1        0.0986
     20 N          18.2900  -23.1500   11.4466 N.1     1  UNL1       -0.1911
     21 S          17.4507  -25.2435   14.2074 S.3     1  UNL1       -0.0869
     22 C          16.0639  -24.9564   15.3346 C.3     1  UNL1        0.1726
     23 C          14.9373  -24.2921   14.5858 C.2     1  UNL1        0.3290
     24 O          15.1802  -23.4792   13.7256 O.2     1  UNL1       -0.2491
     25 O          13.6640  -24.6035   14.8746 O.3     1  UNL1       -0.4377
     26 C          13.4162  -25.9268   15.4184 C.3     1  UNL1        0.2928
     27 C          12.2179  -26.5343   14.7354 C.2     1  UNL1        0.2730
     28 O          11.3333  -25.8200   14.3147 O.2     1  UNL1       -0.2706
     29 N          12.1298  -27.8716   14.5924 N.am    1  UNL1       -0.2476
     30 C          11.0582  -28.4148   13.9817 C.2     1  UNL1        0.2673
     31 O          10.1705  -27.6981   13.5594 O.2     1  UNL1       -0.2682
     32 H          12.8481  -28.4516   14.9341 H       1  UNL1        0.1580
     33 C          10.9624  -29.8686   13.8262 C.ar    1  UNL1        0.1111
     34 C          11.8296  -30.6723   13.1145 C.ar    1  UNL1        0.0231
     35 C          11.3627  -31.9844   13.2362 C.ar    1  UNL1        0.0201
     36 C          10.2404  -31.9570   13.9947 C.ar    1  UNL1        0.0725
     37 N           9.9873  -30.6820   14.3583 N.ar    1  UNL1       -0.3484
     38 H           9.2304  -30.3831   14.9123 H       1  UNL1        0.1661
@<TRIPOS>BOND
     1    17    18    1
     2    18    16    1
     3    16    14    1
     4    14    15    2
     5    14     1    1
     6     1     6    1
     7     1     2    2
     8     2     3    1
     9     2     7    1
    10     3     4    1
    11     4     5    2
    12     4    21    1
    13     5     6    1
    14     5    19    1
    15     6     9    1
    16     9    13   ar
    17     9    10   ar
    18    10    11   ar
    19    11    12   ar
    20    12    13   ar
    21    19    20    3
    22    21    22    1
    23    22    23    1
    24    23    24    2
    25    23    25    1
    26    25    26    1
    27    26    27    1
    28    27    28    2
    29    27    29   am
    30    29    30   am
    31    30    31    2
    32    30    33    1
    33    33    37   ar
    34    33    34   ar
    35    34    35   ar
    36    35    36   ar
    37    36    37   ar
    38     3     8    1
    39    29    32    1
    40    37    38    1
#	Name:			ZINC30778840
#	Creating user name:	trannguyen
#	Creation time:		Wed Dec  7 14:36:20 2022


#	Modifying user name:	trannguyen
#	Modification time:	Wed Dec  7 14:36:20 2022

@<TRIPOS>MOLECULE
ZINC30778840
 36 38 0 0 0
SMALL
GASTEIGER

@<TRIPOS>ATOM
      1 N          19.3047  -23.1534   14.4121 N.am    1  UNL1       -0.2310
      2 C          19.0156  -24.3558   13.8761 C.2     1  UNL1        0.2643
      3 O          19.9090  -25.1449   13.6354 O.2     1  UNL1       -0.2685
      4 H          18.5814  -22.5146   14.6070 H       1  UNL1        0.1731
      5 C          17.6164  -24.7144   13.5818 C.ar    1  UNL1        0.0973
      6 C          16.9568  -24.5703   12.3399 C.ar    1  UNL1        0.1266
      7 N          15.7331  -25.0007   12.4792 N.ar    1  UNL1       -0.1620
      8 N          15.5491  -25.4252   13.7998 N.ar    1  UNL1       -0.2063
      9 C          16.7033  -25.2479   14.4690 C.ar    1  UNL1        0.1617
     10 C          14.3655  -25.9465   14.3342 C.ar    1  UNL1        0.1851
     11 C          14.1230  -27.3188   14.2888 C.ar    1  UNL1        0.0454
     12 C          12.9381  -27.7872   14.8309 C.ar    1  UNL1        0.0624
     13 C          12.0618  -26.8580   15.3880 C.ar    1  UNL1        0.2441
     14 N          12.3759  -25.5732   15.3863 N.ar    1  UNL1       -0.1088
     15 N          13.4765  -25.1392   14.8884 N.ar    1  UNL1       -0.1255
     16 O          10.8883  -27.2704   15.9315 O.3     1  UNL1       -0.4552
     17 C          10.3500  -28.5047   15.4529 C.3     1  UNL1        0.2543
     18 C          16.9530  -25.5725   15.9193 C.3     1  UNL1        0.4351
     19 F          18.3253  -25.5047   16.1827 F       1  UNL1       -0.1644
     20 F          16.2772  -24.6512   16.7264 F       1  UNL1       -0.1644
     21 F          16.4884  -26.8630   16.1950 F       1  UNL1       -0.1644
     22 N          20.6345  -22.8127   14.6918 N.am    1  UNL1       -0.2453
     23 H          21.3261  -22.9193   13.9993 H       1  UNL1        0.1718
     24 C          20.9670  -22.3389   15.9090 C.2     1  UNL1        0.1511
     25 S          20.7783  -20.6740   16.2603 S.2     1  UNL1       -0.0171
     26 N          21.4478  -23.1758   16.8496 N.am    1  UNL1       -0.2948
     27 H          22.4037  -23.4116   16.8565 H       1  UNL1        0.1539
     28 C          18.8879  -24.7658   19.7314 C.ar    1  UNL1        0.1386
     29 C          20.1229  -25.3540   19.5008 C.ar    1  UNL1        0.0382
     30 C          20.9711  -24.8280   18.5464 C.ar    1  UNL1        0.0178
     31 C          20.5876  -23.7102   17.8177 C.ar    1  UNL1        0.0498
     32 C          19.3513  -23.1220   18.0489 C.ar    1  UNL1        0.0178
     33 C          18.5040  -23.6491   19.0036 C.ar    1  UNL1        0.0382
     34 O          18.0532  -25.2843   20.6714 O.3     1  UNL1       -0.4755
     35 C          16.6627  -26.9115   19.5493 C.3     1  UNL1        0.0512
     36 C          17.7659  -26.6813   20.5841 C.3     1  UNL1        0.2055
@<TRIPOS>BOND
     1    35    36    1
     2    36    34    1
     3    34    28    1
     4    28    33   ar
     5    28    29   ar
     6    29    30   ar
     7    30    31   ar
     8    31    32   ar
     9    31    26    1
    10    32    33   ar
    11    26    24    1
    12    24    25    2
    13    24    22    1
    14    22     1    1
    15     1     2   am
    16     2     3    2
    17     2     5    1
    18     5     9   ar
    19     5     6   ar
    20     6     7   ar
    21     7     8   ar
    22     8     9   ar
    23     8    10    1
    24     9    18    1
    25    18    19    1
    26    18    20    1
    27    18    21    1
    28    10    15   ar
    29    10    11   ar
    30    11    12   ar
    31    12    13   ar
    32    13    14   ar
    33    13    16    1
    34    14    15   ar
    35    16    17    1
    36    26    27    1
    37    22    23    1
    38     1     4    1
#	Name:			ZINC30784577
#	Creating user name:	trannguyen
#	Creation time:		Wed Dec  7 14:36:20 2022


#	Modifying user name:	trannguyen
#	Modification time:	Wed Dec  7 14:36:20 2022

@<TRIPOS>MOLECULE
ZINC30784577
 37 40 0 0 0
SMALL
GASTEIGER

@<TRIPOS>ATOM
      1 C          16.6245  -26.0471   20.4449 C.2     1  UNL1        0.2182
      2 O          16.4649  -25.9702   21.6453 O.2     1  UNL1       -0.2873
      3 C          21.5069  -25.4517   19.1135 C.3     1  UNL1        0.0504
      4 C          20.0161  -25.2835   19.2563 C.ar    1  UNL1        0.0415
      5 C          19.2111  -26.0678   19.9916 C.ar    1  UNL1        0.0172
      6 C          17.8519  -25.5314   19.8348 C.ar    1  UNL1        0.0515
      7 C          17.9679  -24.4446   18.9895 C.ar    1  UNL1        0.0443
      8 N          19.2675  -24.3073   18.6584 N.ar    1  UNL1       -0.3134
      9 C          16.8385  -23.5633   18.5218 C.3     1  UNL1        0.0505
     10 C          19.7767  -23.3123   17.8193 C.ar    1  UNL1        0.0634
     11 C          20.2695  -22.1312   18.3637 C.ar    1  UNL1        0.0177
     12 C          20.7764  -21.1506   17.5405 C.ar    1  UNL1        0.0079
     13 C          20.7854  -21.3390   16.1556 C.ar    1  UNL1        0.0757
     14 C          20.2844  -22.5251   15.6119 C.ar    1  UNL1        0.0079
     15 C          19.7840  -23.5034   16.4418 C.ar    1  UNL1        0.0177
     16 C          21.3221  -20.2883   15.2698 C.2     1  UNL1        0.3413
     17 O          20.8094  -20.0864   14.1870 O.2     1  UNL1       -0.2449
     18 O          22.3808  -19.5527   15.6617 O.3     1  UNL1       -0.4413
     19 C          22.2305  -18.1090   15.6243 C.3     1  UNL1        0.2560
     20 C          15.5594  -26.6729   19.5816 C.3     1  UNL1        0.2770
     21 O          16.1428  -27.0889   18.3187 O.3     1  UNL1       -0.4365
     22 C          15.3730  -26.9642   17.2180 C.2     1  UNL1        0.3478
     23 O          14.2011  -27.2871   17.2558 O.2     1  UNL1       -0.2443
     24 C          15.9488  -26.4398   15.9771 C.ar    1  UNL1        0.1067
     25 C          17.2410  -26.4982   15.5496 C.ar    1  UNL1        0.0197
     26 C          17.5943  -25.9319   14.3182 C.ar    1  UNL1        0.0778
     27 C          18.8708  -25.8793   13.6843 C.ar    1  UNL1        0.2292
     28 N          18.9854  -25.2901   12.5097 N.ar    1  UNL1       -0.1791
     29 C          17.9483  -24.7390   11.8891 C.ar    1  UNL1        0.2167
     30 N          16.7370  -24.7507   12.4296 N.ar    1  UNL1       -0.2072
     31 C          16.5357  -25.3237   13.5974 C.ar    1  UNL1        0.1182
     32 S          15.1300  -25.5682   14.6522 S.2     1  UNL1       -0.0613
     33 N          18.1361  -24.1367   10.6590 N.pl3   1  UNL1       -0.3274
     34 H          19.0312  -24.1226   10.2493 H       1  UNL1        0.1452
     35 H          17.3747  -23.7220   10.1927 H       1  UNL1        0.1452
     36 O          19.9537  -26.4281   14.2821 O.3     1  UNL1       -0.4560
     37 C          21.2331  -25.9182   13.9012 C.3     1  UNL1        0.2542
@<TRIPOS>BOND
     1     3     4    1
     2     4     8   ar
     3     4     5   ar
     4     5     6   ar
     5     6     7   ar
     6     6     1    1
     7     7     8   ar
     8     7     9    1
     9     8    10    1
    10    10    15   ar
    11    10    11   ar
    12    11    12   ar
    13    12    13   ar
    14    13    14   ar
    15    13    16    1
    16    14    15   ar
    17    16    17    2
    18    16    18    1
    19    18    19    1
    20     1     2    2
    21     1    20    1
    22    20    21    1
    23    21    22    1
    24    22    23    2
    25    22    24    1
    26    24    32   ar
    27    24    25   ar
    28    25    26   ar
    29    26    31   ar
    30    26    27   ar
    31    27    28   ar
    32    27    36    1
    33    28    29   ar
    34    29    30   ar
    35    29    33    1
    36    30    31   ar
    37    31    32   ar
    38    36    37    1
    39    33    34    1
    40    33    35    1
#	Name:			ZINC30792017
#	Creating user name:	trannguyen
#	Creation time:		Wed Dec  7 14:36:20 2022


#	Modifying user name:	trannguyen
#	Modification time:	Wed Dec  7 14:36:20 2022

@<TRIPOS>MOLECULE
ZINC30792017
 37 40 0 0 0
SMALL
GASTEIGER

@<TRIPOS>ATOM
      1 S          21.4679  -26.5577   13.9245 S.3     1  UNL1       -0.0672
      2 C          22.8237  -26.5866   12.7995 C.ar    1  UNL1        0.1934
      3 N          23.8904  -25.8226   12.8428 N.ar    1  UNL1       -0.1224
      4 N          24.6767  -26.1151   11.8692 N.ar    1  UNL1       -0.1328
      5 C          24.1596  -27.0689   11.1476 C.ar    1  UNL1        0.1441
      6 N          22.9607  -27.4036   11.7141 N.ar    1  UNL1       -0.2913
      7 C          22.0190  -28.4264   11.2523 C.3     1  UNL1        0.1385
      8 C          22.2224  -29.7093   12.0608 C.3     1  UNL1        0.1379
      9 C          20.9352  -30.5716   12.0342 C.3     1  UNL1        0.0341
     10 C          21.5220  -31.9853   12.2965 C.3     1  UNL1        0.0346
     11 C          22.8882  -31.9110   11.5813 C.3     1  UNL1        0.1422
     12 O          23.2344  -30.5271   11.4520 O.3     1  UNL1       -0.3543
     13 C          24.7697  -27.6885    9.9168 C.3     1  UNL1        0.0754
     14 C          26.2695  -27.3880    9.8845 C.3     1  UNL1        0.0928
     15 C          27.0257  -28.5391   10.4962 C.2     1  UNL1        0.2198
     16 O          26.6055  -29.0761   11.4991 O.2     1  UNL1       -0.2753
     17 N          28.1690  -28.9718    9.9287 N.am    1  UNL1       -0.3288
     18 H          28.5101  -28.5358    9.1145 H       1  UNL1        0.1449
     19 H          28.6631  -29.7238   10.3283 H       1  UNL1        0.1449
     20 C          20.5982  -25.0854   13.3311 C.3     1  UNL1        0.1311
     21 C          20.8419  -23.9411   14.2809 C.2     1  UNL1        0.2362
     22 O          21.8693  -23.8947   14.9236 O.2     1  UNL1       -0.2739
     23 N          19.9179  -22.9693   14.4162 N.am    1  UNL1       -0.2832
     24 H          19.0551  -23.0416   13.9476 H       1  UNL1        0.1549
     25 C          20.1842  -21.8600   15.2210 C.ar    1  UNL1        0.0503
     26 C          19.9319  -21.9069   16.5752 C.ar    1  UNL1        0.0147
     27 C          20.2001  -20.8090   17.3874 C.ar    1  UNL1        0.0013
     28 C          20.7057  -19.6566   16.8673 C.ar    1  UNL1        0.0001
     29 C          20.9712  -19.5656   15.4905 C.ar    1  UNL1        0.0012
     30 C          20.7085  -20.6789   14.6545 C.ar    1  UNL1        0.0135
     31 C          20.9751  -20.5866   13.2794 C.ar    1  UNL1        0.0012
     32 C          21.4806  -19.4310   12.7670 C.ar    1  UNL1        0.0000
     33 C          21.7392  -18.3353   13.5883 C.ar    1  UNL1        0.0000
     34 C          21.4935  -18.3890   14.9258 C.ar    1  UNL1        0.0000
     35 C          18.6150  -25.1934   11.8153 C.3     1  UNL1        0.0014
     36 C          19.0978  -25.3751   13.2557 C.3     1  UNL1        0.0192
     37 C          18.8329  -26.8135   13.7048 C.3     1  UNL1        0.0014
@<TRIPOS>BOND
     1    35    36    1
     2    36    37    1
     3    36    20    1
     4    20    21    1
     5    20     1    1
     6    21    22    2
     7    21    23   am
     8    23    25    1
     9    25    30   ar
    10    25    26   ar
    11    26    27   ar
    12    27    28   ar
    13    28    29   ar
    14    29    34   ar
    15    29    30   ar
    16    30    31   ar
    17    31    32   ar
    18    32    33   ar
    19    33    34   ar
    20     1     2    1
    21     2     6   ar
    22     2     3   ar
    23     3     4   ar
    24     4     5   ar
    25     5     6   ar
    26     5    13    1
    27     6     7    1
    28     7     8    1
    29     8    12    1
    30     8     9    1
    31     9    10    1
    32    10    11    1
    33    11    12    1
    34    13    14    1
    35    14    15    1
    36    15    16    2
    37    15    17   am
    38    23    24    1
    39    17    18    1
    40    17    19    1
#	Name:			ZINC30831774
#	Creating user name:	trannguyen
#	Creation time:		Wed Dec  7 14:36:20 2022


#	Modifying user name:	trannguyen
#	Modification time:	Wed Dec  7 14:36:20 2022

@<TRIPOS>MOLECULE
ZINC30831774
 31 33 0 0 0
SMALL
GASTEIGER

@<TRIPOS>ATOM
      1 C          17.0444  -24.9009   13.2358 C.2     1  UNL1       -0.0344
      2 S          16.5973  -23.5868   12.2337 S.2     1  UNL1       -0.0617
      3 N          16.1169  -25.7985   13.6239 N.am    1  UNL1       -0.2955
      4 C          15.2322  -25.4787   14.5891 C.2     1  UNL1        0.2486
      5 O          15.2708  -24.3795   15.1100 O.2     1  UNL1       -0.2698
      6 H          16.0857  -26.6877   13.2025 H       1  UNL1        0.1538
      7 C          14.2266  -26.4518   15.0100 C.2     1  UNL1        0.0580
      8 C          12.9640  -26.0488   15.2701 C.2     1  UNL1        0.0047
      9 C          11.9526  -27.0275   15.6933 C.ar    1  UNL1        0.0003
     10 C          11.1011  -27.6110   14.7479 C.ar    1  UNL1        0.0031
     11 C          10.1584  -28.5305   15.1489 C.ar    1  UNL1        0.0369
     12 C          10.0447  -28.8726   16.4917 C.ar    1  UNL1        0.1387
     13 C          10.8844  -28.2920   17.4354 C.ar    1  UNL1        0.0369
     14 C          11.8337  -27.3751   17.0442 C.ar    1  UNL1        0.0031
     15 O           9.1103  -29.7761   16.8826 O.3     1  UNL1       -0.4714
     16 C           9.2227  -30.2924   18.2104 C.3     1  UNL1        0.2525
     17 N          18.3240  -25.0380   13.6365 N.am    1  UNL1       -0.6270
     18 C          20.2262  -22.1111   18.1136 C.3     1  UNL1        0.0323
     19 C          19.7216  -22.8867   16.9242 C.ar    1  UNL1       -0.0085
     20 C          19.2264  -24.1656   17.0938 C.ar    1  UNL1       -0.0049
     21 C          18.7572  -24.8775   16.0070 C.ar    1  UNL1       -0.0249
     22 C          18.7934  -24.3140   14.7374 C.ar    1  UNL1       -0.1223
     23 C          19.2904  -23.0304   14.5637 C.ar    1  UNL1       -0.0102
     24 C          19.7553  -22.3155   15.6584 C.ar    1  UNL1        0.0444
     25 N          20.2577  -21.0209   15.4875 N.am    1  UNL1       -0.2842
     26 C          21.5513  -20.8384   15.1557 C.2     1  UNL1        0.2256
     27 O          22.3052  -21.7874   15.1098 O.2     1  UNL1       -0.2748
     28 H          19.6664  -20.2432   15.6095 H       1  UNL1        0.1548
     29 C          22.0607  -19.4554   14.8417 C.3     1  UNL1        0.0768
     30 C          22.0287  -18.4185   15.9664 C.3     1  UNL1        0.0096
     31 C          21.0386  -18.3176   14.8042 C.3     1  UNL1        0.0096
@<TRIPOS>UNITY_ATOM_ATTR
17 1
charge -1
@<TRIPOS>BOND
     1    18    19    1
     2    19    24   ar
     3    19    20   ar
     4    20    21   ar
     5    21    22   ar
     6    22    23   ar
     7    22    17    1
     8    23    24   ar
     9    24    25    1
    10    25    26   am
    11    26    27    2
    12    26    29    1
    13    29    31    1
    14    29    30    1
    15    30    31    1
    16    17     1    1
    17     1     2    2
    18     1     3    1
    19     3     4   am
    20     4     5    2
    21     4     7    1
    22     7     8    2
    23     8     9    1
    24     9    14   ar
    25     9    10   ar
    26    10    11   ar
    27    11    12   ar
    28    12    13   ar
    29    12    15    1
    30    13    14   ar
    31    15    16    1
    32    25    28    1
    33     3     6    1
#	Name:			ZINC30920331
#	Creating user name:	trannguyen
#	Creation time:		Wed Dec  7 14:36:19 2022


#	Modifying user name:	trannguyen
#	Modification time:	Wed Dec  7 14:36:19 2022

@<TRIPOS>MOLECULE
ZINC30920331
 36 38 0 0 0
SMALL
GASTEIGER

@<TRIPOS>ATOM
      1 C          20.8138  -25.4207   13.8002 C.ar    1  UNL1        0.1308
      2 C          22.1451  -25.3238   14.2684 C.ar    1  UNL1        0.1300
      3 N          22.4644  -24.0613   14.3296 N.ar    1  UNL1       -0.1619
      4 N          21.3744  -23.2905   13.9113 N.ar    1  UNL1       -0.2133
      5 C          20.3601  -24.1222   13.5920 C.ar    1  UNL1        0.1570
      6 C          21.3395  -21.8914   13.8412 C.ar    1  UNL1        0.0843
      7 C          21.5868  -21.2488   12.6352 C.ar    1  UNL1        0.0192
      8 C          21.5465  -19.8700   12.5682 C.ar    1  UNL1        0.0015
      9 C          21.2713  -19.1289   13.7030 C.ar    1  UNL1        0.0039
     10 C          21.0246  -19.7658   14.9051 C.ar    1  UNL1        0.0729
     11 C          21.0579  -21.1449   14.9774 C.ar    1  UNL1        0.0231
     12 C          20.7195  -18.9546   16.1380 C.3     1  UNL1        0.4186
     13 F          21.9122  -18.4654   16.6812 F       1  UNL1       -0.1659
     14 F          19.8880  -17.8824   15.7968 F       1  UNL1       -0.1659
     15 F          20.0748  -19.7630   17.0804 F       1  UNL1       -0.1659
     16 N          19.1005  -23.7511   13.1383 N.ar    1  UNL1       -0.2886
     17 C          18.0044  -23.5243   13.9238 C.ar    1  UNL1        0.0815
     18 C          16.9761  -23.1822   13.1225 C.ar    1  UNL1        0.0206
     19 C          17.4475  -23.2069   11.7936 C.ar    1  UNL1        0.0206
     20 C          18.7484  -23.5574   11.8314 C.ar    1  UNL1        0.0815
     21 C          20.0529  -26.6573   13.5812 C.2     1  UNL1        0.3462
     22 O          19.0612  -26.6444   12.8780 O.2     1  UNL1       -0.2447
     23 O          20.4540  -27.8070   14.1600 O.3     1  UNL1       -0.4352
     24 C          20.2303  -29.0331   13.4150 C.3     1  UNL1        0.2931
     25 N          23.0789  -28.5848    9.5685 N.am    1  UNL1       -0.2861
     26 C          22.8373  -29.1488   10.7686 C.2     1  UNL1        0.3066
     27 O          23.6266  -29.9467   11.2349 O.2     1  UNL1       -0.2524
     28 N          21.7205  -28.8279   11.4514 N.am    1  UNL1       -0.2366
     29 C          21.4790  -29.3919   12.6514 C.2     1  UNL1        0.2739
     30 O          22.2663  -30.1878   13.1167 O.2     1  UNL1       -0.2706
     31 H          22.4396  -27.9385    9.1907 H       1  UNL1        0.1511
     32 H          21.0812  -28.1816   11.0735 H       1  UNL1        0.1592
     33 C          24.2928  -28.9336    8.8263 C.3     1  UNL1        0.1229
     34 C          24.8407  -27.6864    8.1296 C.3     1  UNL1        0.1635
     35 C          26.5448  -27.9740    9.7906 C.3     1  UNL1        0.1742
     36 O          26.2150  -27.5103    8.4797 O.3     1  UNL1       -0.3493
@<TRIPOS>BOND
     1    35    36    1
     2    36    34    1
     3    34    33    1
     4    33    25    1
     5    25    26   am
     6    26    27    2
     7    26    28   am
     8    28    29   am
     9    29    30    2
    10    29    24    1
    11    24    23    1
    12    23    21    1
    13    21    22    2
    14    21     1    1
    15     1     5   ar
    16     1     2   ar
    17     2     3   ar
    18     3     4   ar
    19     4     5   ar
    20     4     6    1
    21     5    16    1
    22    16    20   ar
    23    16    17   ar
    24    17    18   ar
    25    18    19   ar
    26    19    20   ar
    27     6    11   ar
    28     6     7   ar
    29     7     8   ar
    30     8     9   ar
    31     9    10   ar
    32    10    11   ar
    33    10    12    1
    34    12    13    1
    35    12    14    1
    36    12    15    1
    37    25    31    1
    38    28    32    1
#	Name:			ZINC30987293
#	Creating user name:	trannguyen
#	Creation time:		Wed Dec  7 14:36:20 2022


#	Modifying user name:	trannguyen
#	Modification time:	Wed Dec  7 14:36:20 2022

@<TRIPOS>MOLECULE
ZINC30987293
 36 39 0 0 0
SMALL
GASTEIGER

@<TRIPOS>ATOM
      1 N          15.4577  -25.7274   14.1302 N.am    1  UNL1       -0.2641
      2 C          14.3922  -25.1870   14.7541 C.2     1  UNL1        0.2275
      3 O          14.2906  -23.9819   14.8467 O.2     1  UNL1       -0.2747
      4 H          15.5401  -26.7056   14.0550 H       1  UNL1        0.1567
      5 C          18.3521  -23.6240   13.5182 C.ar    1  UNL1        0.0912
      6 C          18.0881  -23.3607   12.2042 C.ar    1  UNL1        0.0573
      7 S          16.5766  -24.2859   11.9766 S.2     1  UNL1       -0.0508
      8 C          16.4398  -24.9039   13.5931 C.ar    1  UNL1        0.1655
      9 N          17.5056  -24.3995   14.1802 N.ar    1  UNL1       -0.2239
     10 C          21.0113  -21.6209   15.0883 C.ar    1  UNL1        0.1334
     11 C          19.7855  -21.6977   14.4632 C.ar    1  UNL1        0.0266
     12 C          19.5520  -23.0575   14.1855 C.ar    1  UNL1        0.0369
     13 C          20.6324  -23.7605   14.6362 C.ar    1  UNL1        0.0741
     14 N          21.5160  -22.8988   15.1816 N.ar    1  UNL1       -0.3469
     15 H          22.3815  -23.1440   15.5817 H       1  UNL1        0.1662
     16 C          21.6632  -20.3979   15.5639 C.2     1  UNL1        0.3572
     17 O          22.8558  -20.2365   15.3879 O.2     1  UNL1       -0.2433
     18 C          21.3146  -18.0681   15.9601 C.3     1  UNL1        0.2560
     19 O          20.9407  -19.4510   16.1971 O.3     1  UNL1       -0.4403
     20 C          13.3272  -26.0799   15.3365 C.3     1  UNL1        0.0854
     21 C          13.9624  -27.3879   15.8124 C.3     1  UNL1        0.0096
     22 C          13.8127  -27.5049   17.3306 C.3     1  UNL1        0.0025
     23 C          15.1751  -27.2965   17.9950 C.3     1  UNL1        0.0246
     24 C          16.2852  -27.5584   16.9754 C.3     1  UNL1        0.1077
     25 N          17.5014  -26.8522   17.3854 N.ar    1  UNL1       -0.3103
     26 C          17.4893  -25.5040   17.4662 C.ar    1  UNL1        0.2580
     27 O          16.4838  -24.8725   17.2041 O.2     1  UNL1       -0.2671
     28 C          18.7264  -24.8180   17.8807 C.ar    1  UNL1        0.0340
     29 C          18.7943  -23.4311   17.9885 C.ar    1  UNL1        0.0029
     30 C          19.9756  -22.8373   18.3809 C.ar    1  UNL1        0.0000
     31 C          21.0896  -23.6118   18.6666 C.ar    1  UNL1       -0.0018
     32 C          21.0354  -24.9876   18.5637 C.ar    1  UNL1       -0.0238
     33 C          19.8563  -25.6024   18.1711 C.ar    1  UNL1       -0.1133
     34 N          19.7593  -26.9813   18.0556 N.ar    1  UNL1       -0.6386
     35 C          18.6066  -27.5572   17.6732 C.ar    1  UNL1       -0.0162
     36 S          18.5458  -29.2636   17.5476 S.2     1  UNL1       -0.0582
@<TRIPOS>UNITY_ATOM_ATTR
34 1
charge -1
@<TRIPOS>BOND
     1    18    19    1
     2    19    16    1
     3    16    17    2
     4    16    10    1
     5    10    14   ar
     6    10    11   ar
     7    11    12   ar
     8    12    13   ar
     9    12     5    1
    10    13    14   ar
    11     5     9   ar
    12     5     6   ar
    13     6     7   ar
    14     7     8   ar
    15     8     9   ar
    16     8     1    1
    17     1     2   am
    18     2     3    2
    19     2    20    1
    20    20    21    1
    21    21    22    1
    22    22    23    1
    23    23    24    1
    24    24    25    1
    25    25    35   ar
    26    25    26   ar
    27    26    27    2
    28    26    28   ar
    29    28    33   ar
    30    28    29   ar
    31    29    30   ar
    32    30    31   ar
    33    31    32   ar
    34    32    33   ar
    35    33    34   ar
    36    34    35   ar
    37    35    36    2
    38    14    15    1
    39     1     4    1
#	Name:			ZINC31067170
#	Creating user name:	trannguyen
#	Creation time:		Wed Dec  7 14:36:20 2022


#	Modifying user name:	trannguyen
#	Modification time:	Wed Dec  7 14:36:20 2022

@<TRIPOS>MOLECULE
ZINC31067170
 35 38 0 0 0
SMALL
GASTEIGER

@<TRIPOS>ATOM
      1 C          20.9539  -22.9987   13.5319 C.2     1  UNL1        0.0887
      2 C          20.2237  -21.8638   13.5016 C.2     1  UNL1        0.0770
      3 N          18.9049  -21.8838   13.1476 N.am    1  UNL1       -0.2687
      4 C          18.2437  -22.9979   12.8091 C.2     1  UNL1        0.3048
      5 O          17.0690  -22.9159   12.5078 O.2     1  UNL1       -0.2525
      6 N          18.8382  -24.2074   12.7919 N.am    1  UNL1       -0.2821
      7 C          20.2618  -24.2940   13.1588 C.3     1  UNL1        0.1314
      8 H          18.4127  -21.0312   13.1409 H       1  UNL1        0.1562
      9 H          18.3327  -25.0138   12.5401 H       1  UNL1        0.1516
     10 C          20.3839  -25.2391   14.3263 C.ar    1  UNL1        0.0295
     11 C          19.7250  -25.2220   15.5107 C.ar    1  UNL1        0.0046
     12 C          20.0060  -26.1982   16.4482 C.ar    1  UNL1        0.0072
     13 C          20.9240  -27.1502   16.1509 C.ar    1  UNL1        0.0352
     14 S          21.4341  -26.6711   14.5085 S.2     1  UNL1       -0.0888
     15 C          22.3195  -22.9790   13.9002 C.2     1  UNL1        0.3401
     16 O          22.6366  -23.1056   15.0681 O.2     1  UNL1       -0.2451
     17 O          23.2706  -22.8196   12.9562 O.3     1  UNL1       -0.4456
     18 C          25.1541  -23.5599   11.6352 C.3     1  UNL1        0.0513
     19 C          24.2009  -23.8908   12.7853 C.3     1  UNL1        0.2089
     20 C          20.8738  -20.5538   13.8653 C.3     1  UNL1        0.2498
     21 O          20.2551  -20.0237   15.0672 O.3     1  UNL1       -0.4380
     22 C          20.9864  -20.0594   16.1981 C.2     1  UNL1        0.3613
     23 O          21.8449  -19.2223   16.3931 O.2     1  UNL1       -0.2431
     24 C          20.7443  -21.1158   17.2005 C.ar    1  UNL1        0.1774
     25 C          19.5961  -21.9318   17.2945 C.ar    1  UNL1        0.0464
     26 C          19.8214  -22.7556   18.3652 C.ar    1  UNL1        0.0815
     27 N          21.0451  -22.4198   18.8693 N.ar    1  UNL1       -0.2751
     28 N          21.5585  -21.4677   18.1766 N.ar    1  UNL1       -0.1660
     29 H          21.4710  -22.8448   19.6485 H       1  UNL1        0.1890
     30 C          18.9155  -23.7990   18.8779 C.ar    1  UNL1        0.0462
     31 C          19.1590  -24.7709   19.8137 C.ar    1  UNL1        0.0081
     32 C          18.1447  -25.6437   20.1398 C.ar    1  UNL1        0.0027
     33 C          16.9427  -25.5231   19.5197 C.ar    1  UNL1        0.0077
     34 S          17.2178  -24.1313   18.4361 S.2     1  UNL1       -0.0898
     35 C          15.6968  -26.3518   19.6993 C.3     1  UNL1        0.0382
@<TRIPOS>BOND
     1    18    19    1
     2    19    17    1
     3    17    15    1
     4    15    16    2
     5    15     1    1
     6     1     7    1
     7     1     2    2
     8     2     3    1
     9     2    20    1
    10     3     4   am
    11     4     5    2
    12     4     6   am
    13     6     7    1
    14     7    10    1
    15    10    14   ar
    16    10    11   ar
    17    11    12   ar
    18    12    13   ar
    19    13    14   ar
    20    20    21    1
    21    21    22    1
    22    22    23    2
    23    22    24    1
    24    24    28   ar
    25    24    25   ar
    26    25    26   ar
    27    26    27   ar
    28    26    30    1
    29    27    28   ar
    30    30    34   ar
    31    30    31   ar
    32    31    32   ar
    33    32    33   ar
    34    33    34   ar
    35    33    35    1
    36     3     8    1
    37     6     9    1
    38    27    29    1
#	Name:			ZINC31077415
#	Creating user name:	trannguyen
#	Creation time:		Wed Dec  7 14:36:19 2022


#	Modifying user name:	trannguyen
#	Modification time:	Wed Dec  7 14:36:19 2022

@<TRIPOS>MOLECULE
ZINC31077415
 32 33 0 0 0
SMALL
GASTEIGER

@<TRIPOS>ATOM
      1 C          24.8022  -23.8083   11.6329 C.2     1  UNL1        0.2680
      2 O          25.5387  -22.8704   11.3952 O.2     1  UNL1       -0.2681
      3 N          23.6317  -23.6019   12.2683 N.am    1  UNL1       -0.1893
      4 H          23.0355  -24.3613   12.4607 H       1  UNL1        0.1828
      5 C          25.9189  -27.7393   10.4657 C.ar    1  UNL1        0.1722
      6 C          25.7377  -27.4391   11.8090 C.ar    1  UNL1        0.0402
      7 C          25.3760  -26.1654   12.1909 C.ar    1  UNL1        0.0079
      8 C          25.1903  -25.1730   11.2255 C.ar    1  UNL1        0.0586
      9 C          25.3721  -25.4750    9.8734 C.ar    1  UNL1        0.0446
     10 C          25.7403  -26.7523    9.4977 C.ar    1  UNL1        0.1725
     11 O          25.9235  -27.0483    8.1829 O.3     1  UNL1       -0.4684
     12 C          24.8890  -26.6548    7.2791 C.3     1  UNL1        0.2526
     13 O          26.2763  -28.9957   10.0944 O.3     1  UNL1       -0.4724
     14 C          25.3502  -30.0453   10.3824 C.3     1  UNL1        0.2056
     15 C          24.0335  -29.7786    9.6502 C.3     1  UNL1        0.0473
     16 C          22.3007  -28.5031   10.9204 C.3     1  UNL1        0.0001
     17 C          22.8692  -29.8948   10.6360 C.3     1  UNL1        0.0038
     18 O          23.2596  -22.2928   12.6592 O.3     1  UNL1       -0.2594
     19 C          21.8997  -22.1773   13.0829 C.3     1  UNL1        0.2175
     20 C          21.5736  -20.7075   13.3556 C.3     1  UNL1        0.0447
     21 C          21.6963  -22.9791   14.3426 C.2     1  UNL1        0.2557
     22 O          22.5745  -23.0299   15.1776 O.2     1  UNL1       -0.2721
     23 N          20.5385  -23.6397   14.5414 N.am    1  UNL1       -0.2821
     24 H          19.7956  -23.5337   13.9041 H       1  UNL1        0.1549
     25 C          20.3924  -24.4763   15.6534 C.ar    1  UNL1        0.0460
     26 C          19.8927  -23.9684   16.8455 C.ar    1  UNL1        0.0101
     27 C          19.7497  -24.7967   17.9412 C.ar    1  UNL1       -0.0206
     28 C          20.1036  -26.1307   17.8523 C.ar    1  UNL1       -0.0045
     29 C          20.6017  -26.6393   16.6670 C.ar    1  UNL1       -0.0034
     30 C          20.7414  -25.8174   15.5656 C.ar    1  UNL1       -0.0084
     31 C          21.2777  -26.3743   14.2721 C.3     1  UNL1        0.0323
     32 C          19.2071  -24.2465   19.2350 C.3     1  UNL1        0.0311
@<TRIPOS>BOND
     1    16    17    1
     2    17    15    1
     3    15    14    1
     4    14    13    1
     5    13     5    1
     6     5    10   ar
     7     5     6   ar
     8     6     7   ar
     9     7     8   ar
    10     8     9   ar
    11     8     1    1
    12     9    10   ar
    13    10    11    1
    14    11    12    1
    15     1     2    2
    16     1     3   am
    17     3    18    1
    18    18    19    1
    19    19    20    1
    20    19    21    1
    21    21    22    2
    22    21    23   am
    23    23    25    1
    24    25    30   ar
    25    25    26   ar
    26    26    27   ar
    27    27    28   ar
    28    27    32    1
    29    28    29   ar
    30    29    30   ar
    31    30    31    1
    32     3     4    1
    33    23    24    1
#	Name:			ZINC31348291
#	Creating user name:	trannguyen
#	Creation time:		Wed Dec  7 14:36:20 2022


#	Modifying user name:	trannguyen
#	Modification time:	Wed Dec  7 14:36:20 2022

@<TRIPOS>MOLECULE
ZINC31348291
 34 36 0 0 0
SMALL
GASTEIGER

@<TRIPOS>ATOM
      1 C          20.0871  -25.2773   17.8965 C.3     1  UNL1        0.2441
      2 C          20.5509  -23.9279   17.4113 C.2     1  UNL1        0.2665
      3 O          21.7125  -23.6034   17.5405 O.2     1  UNL1       -0.2709
      4 N          19.6751  -23.0819   16.8338 N.am    1  UNL1       -0.2786
      5 H          18.7180  -23.3104   16.8018 H       1  UNL1        0.1551
      6 C          20.1272  -21.8755   16.2781 C.ar    1  UNL1        0.0850
      7 C          20.2396  -20.7442   17.0726 C.ar    1  UNL1        0.0209
      8 C          20.6799  -19.5548   16.5243 C.ar    1  UNL1        0.0384
      9 C          21.0215  -19.4921   15.1812 C.ar    1  UNL1        0.1418
     10 C          20.9109  -20.6205   14.3826 C.ar    1  UNL1        0.0750
     11 C          20.4644  -21.8129   14.9281 C.ar    1  UNL1        0.1551
     12 O          20.3556  -22.9205   14.1470 O.3     1  UNL1       -0.4701
     13 C          21.5702  -23.5802   13.7841 C.3     1  UNL1        0.2525
     14 O          21.4594  -18.3216   14.6457 O.3     1  UNL1       -0.4713
     15 C          21.7294  -18.3111   13.2424 C.3     1  UNL1        0.2525
     16 C          21.1438  -25.8753   18.8273 C.3     1  UNL1        0.0493
     17 C          20.6353  -25.8333   20.2698 C.3     1  UNL1        0.0042
     18 C          21.4161  -27.3260   18.4245 C.3     1  UNL1        0.0042
     19 O          19.8890  -26.1585   16.7596 O.3     1  UNL1       -0.4426
     20 C          18.6225  -26.3816   16.3748 C.2     1  UNL1        0.3218
     21 O          17.7139  -25.8045   16.9237 O.2     1  UNL1       -0.2497
     22 C          18.3340  -27.3519   15.2584 C.3     1  UNL1        0.1370
     23 C          15.4748  -22.8953   13.0727 C.3     1  UNL1        0.0310
     24 C          16.6479  -23.7791   12.7353 C.ar    1  UNL1       -0.0218
     25 C          17.3543  -23.5669   11.5591 C.ar    1  UNL1       -0.0028
     26 C          18.4293  -24.3635   11.2316 C.ar    1  UNL1        0.0166
     27 C          18.8131  -25.3918   12.0865 C.ar    1  UNL1        0.0561
     28 C          18.0942  -25.6027   13.2771 C.ar    1  UNL1        0.0129
     29 C          17.0075  -24.7831   13.5893 C.ar    1  UNL1       -0.0031
     30 C          18.7375  -26.7381   13.9426 C.ar    1  UNL1        0.0018
     31 C          19.7581  -27.1243   13.1610 C.ar    1  UNL1        0.0305
     32 N          19.8151  -26.3351   12.0446 N.ar    1  UNL1       -0.3566
     33 C          20.6994  -28.2609   13.4659 C.3     1  UNL1        0.0494
     34 H          20.4744  -26.4280   11.3194 H       1  UNL1        0.1656
@<TRIPOS>BOND
     1    23    24    1
     2    24    29   ar
     3    24    25   ar
     4    25    26   ar
     5    26    27   ar
     6    27    32   ar
     7    27    28   ar
     8    28    29   ar
     9    28    30   ar
    10    30    31   ar
    11    30    22    1
    12    31    32   ar
    13    31    33    1
    14    22    20    1
    15    20    21    2
    16    20    19    1
    17    19     1    1
    18     1    16    1
    19     1     2    1
    20    16    17    1
    21    16    18    1
    22     2     3    2
    23     2     4   am
    24     4     6    1
    25     6    11   ar
    26     6     7   ar
    27     7     8   ar
    28     8     9   ar
    29     9    10   ar
    30     9    14    1
    31    10    11   ar
    32    11    12    1
    33    12    13    1
    34    14    15    1
    35    32    34    1
    36     4     5    1
#	Name:			ZINC31362792
#	Creating user name:	trannguyen
#	Creation time:		Wed Dec  7 14:36:19 2022


#	Modifying user name:	trannguyen
#	Modification time:	Wed Dec  7 14:36:19 2022

@<TRIPOS>MOLECULE
ZINC31362792
 41 44 0 0 0
SMALL
GASTEIGER

@<TRIPOS>ATOM
      1 N          19.8875  -21.8753   17.7109 N.2     1  UNL1       -0.2457
      2 C          19.9607  -21.7580   16.3972 C.2     1  UNL1        0.0816
      3 C          19.4068  -22.7625   15.5696 C.2     1  UNL1        0.0268
      4 C          19.4673  -22.6704   14.1967 C.2     1  UNL1        0.0937
      5 C          20.1131  -21.5168   13.5561 C.2     1  UNL1        0.2000
      6 O          20.1666  -21.4354   12.3421 O.2     1  UNL1       -0.2864
      7 C          20.6956  -20.4597   14.4012 C.ar    1  UNL1        0.0405
      8 C          20.6196  -20.5803   15.8020 C.ar    1  UNL1        0.0207
      9 C          21.1728  -19.5884   16.6084 C.ar    1  UNL1        0.0016
     10 C          21.7804  -18.4927   16.0290 C.ar    1  UNL1        0.0001
     11 C          21.8548  -18.3745   14.6502 C.ar    1  UNL1        0.0001
     12 C          21.3177  -19.3487   13.8339 C.ar    1  UNL1        0.0032
     13 C          18.4381  -25.3354   19.3859 C.ar    1  UNL1        0.0476
     14 C          17.5578  -24.4289   18.7917 C.ar    1  UNL1        0.0160
     15 C          18.0322  -23.2792   18.2345 C.ar    1  UNL1        0.0200
     16 C          19.4135  -23.0065   18.2589 C.ar    1  UNL1        0.0774
     17 C          20.2962  -23.9272   18.8548 C.ar    1  UNL1       -0.0030
     18 C          19.8084  -25.0709   19.4134 C.ar    1  UNL1        0.0117
     19 C          21.7765  -23.6460   18.8803 C.3     1  UNL1        0.0326
     20 N          17.9491  -26.5029   19.9505 N.pl3   1  UNL1       -0.3075
     21 C          18.8652  -28.7669   19.8208 C.3     1  UNL1        0.0232
     22 C          18.8674  -27.4462   20.5933 C.3     1  UNL1        0.0908
     23 C          16.5140  -26.7936   19.9045 C.3     1  UNL1        0.0908
     24 C          15.9062  -26.5821   21.2926 C.3     1  UNL1        0.0232
     25 C          18.8802  -23.7356   13.3652 C.2     1  UNL1        0.2490
     26 O          17.6736  -23.8829   13.3282 O.2     1  UNL1       -0.2700
     27 N          19.6804  -24.5469   12.6454 N.am    1  UNL1       -0.3004
     28 H          20.6490  -24.3749   12.6067 H       1  UNL1        0.1498
     29 C          19.1089  -25.6845   11.9207 C.3     1  UNL1        0.0944
     30 C          19.8320  -26.9679   12.3340 C.3     1  UNL1        0.0488
     31 C          19.8803  -27.0552   13.8378 C.ar    1  UNL1       -0.0070
     32 C          18.7131  -27.2146   14.5589 C.ar    1  UNL1       -0.0030
     33 C          18.7570  -27.3001   15.9381 C.ar    1  UNL1       -0.0002
     34 C          19.9680  -27.2159   16.6009 C.ar    1  UNL1        0.0013
     35 C          21.1380  -27.0508   15.8861 C.ar    1  UNL1        0.0144
     36 C          21.0977  -26.9698   14.5001 C.ar    1  UNL1        0.0463
     37 N          22.2813  -26.8021   13.7729 N.am    1  UNL1       -0.2842
     38 C          22.8413  -25.5805   13.6694 C.2     1  UNL1        0.2266
     39 O          22.3520  -24.6375   14.2545 O.2     1  UNL1       -0.2748
     40 C          24.0754  -25.3864   12.8265 C.3     1  UNL1        0.0949
     41 H          22.7050  -27.5764   13.3370 H       1  UNL1        0.1548
@<TRIPOS>BOND
     1    21    22    1
     2    22    20    1
     3    20    23    1
     4    20    13    1
     5    23    24    1
     6    13    18   ar
     7    13    14   ar
     8    14    15   ar
     9    15    16   ar
    10    16    17   ar
    11    16     1    1
    12    17    18   ar
    13    17    19    1
    14     1     2    2
    15     2     8    1
    16     2     3    1
    17     3     4    2
    18     4     5    1
    19     4    25    1
    20     5     6    2
    21     5     7    1
    22     7    12   ar
    23     7     8   ar
    24     8     9   ar
    25     9    10   ar
    26    10    11   ar
    27    11    12   ar
    28    25    26    2
    29    25    27   am
    30    27    29    1
    31    29    30    1
    32    30    31    1
    33    31    36   ar
    34    31    32   ar
    35    32    33   ar
    36    33    34   ar
    37    34    35   ar
    38    35    36   ar
    39    36    37    1
    40    37    38   am
    41    38    39    2
    42    38    40    1
    43    27    28    1
    44    37    41    1
#	Name:			ZINC31372609
#	Creating user name:	trannguyen
#	Creation time:		Wed Dec  7 14:36:19 2022


#	Modifying user name:	trannguyen
#	Modification time:	Wed Dec  7 14:36:19 2022

@<TRIPOS>MOLECULE
ZINC31372609
 30 32 0 0 0
SMALL
GASTEIGER

@<TRIPOS>ATOM
      1 C          19.0700  -23.8793   12.8148 C.ar    1  UNL1       -0.0011
      2 C          18.7601  -23.4276   11.5448 C.ar    1  UNL1       -0.0025
      3 C          17.4989  -23.6417   11.0203 C.ar    1  UNL1        0.0010
      4 C          16.5408  -24.2985   11.7678 C.ar    1  UNL1        0.0147
      5 C          16.8470  -24.7485   13.0451 C.ar    1  UNL1        0.0500
      6 C          18.1166  -24.5365   13.5671 C.ar    1  UNL1        0.0121
      7 N          15.8786  -25.4137   13.8051 N.am    1  UNL1       -0.2839
      8 C          14.9072  -24.7121   14.4221 C.2     1  UNL1        0.2281
      9 O          14.8222  -23.5143   14.2509 O.2     1  UNL1       -0.2747
     10 H          15.9069  -26.3942   13.8893 H       1  UNL1        0.1549
     11 C          13.9265  -25.4157   15.3244 C.3     1  UNL1        0.1098
     12 C          13.9938  -26.9235   15.0737 C.3     1  UNL1        0.1156
     13 N          12.7773  -27.5586   15.5864 N.ar    1  UNL1       -0.3255
     14 C          12.5751  -27.9353   16.8862 C.ar    1  UNL1        0.0759
     15 C          11.3565  -28.4821   17.0201 C.ar    1  UNL1        0.0201
     16 C          10.7307  -28.4630   15.6957 C.ar    1  UNL1        0.0173
     17 C          11.6693  -27.8708   14.8308 C.ar    1  UNL1        0.0599
     18 C          11.3522  -27.7138   13.4857 C.ar    1  UNL1        0.0172
     19 C          10.1279  -28.1382   13.0172 C.ar    1  UNL1        0.0015
     20 C           9.2054  -28.7217   13.8744 C.ar    1  UNL1        0.0001
     21 C           9.4963  -28.8857   15.1997 C.ar    1  UNL1        0.0015
     22 C          20.4475  -23.6485   13.3805 C.3     1  UNL1        0.1205
     23 C          19.9625  -21.8706   15.1248 C.3     1  UNL1        0.1154
     24 N          20.5586  -22.2637   13.8456 N.am    1  UNL1       -0.2669
     25 C          21.2093  -21.3514   13.0967 C.2     1  UNL1        0.3213
     26 O          21.7028  -21.6769   12.0378 O.2     1  UNL1       -0.2658
     27 C          21.3236  -19.9271   13.5752 C.3     1  UNL1        0.4697
     28 F          21.9132  -19.1453   12.5759 F       1  UNL1       -0.1620
     29 F          20.0490  -19.4289   13.8657 F       1  UNL1       -0.1620
     30 F          22.1149  -19.8844   14.7282 F       1  UNL1       -0.1620
@<TRIPOS>BOND
     1    23    24    1
     2    24    22    1
     3    24    25   am
     4    22     1    1
     5     1     6   ar
     6     1     2   ar
     7     2     3   ar
     8     3     4   ar
     9     4     5   ar
    10     5     6   ar
    11     5     7    1
    12     7     8   am
    13     8     9    2
    14     8    11    1
    15    11    12    1
    16    12    13    1
    17    13    17   ar
    18    13    14   ar
    19    14    15   ar
    20    15    16   ar
    21    16    21   ar
    22    16    17   ar
    23    17    18   ar
    24    18    19   ar
    25    19    20   ar
    26    20    21   ar
    27    25    26    2
    28    25    27    1
    29    27    28    1
    30    27    29    1
    31    27    30    1
    32     7    10    1
#	Name:			ZINC31452404
#	Creating user name:	trannguyen
#	Creation time:		Wed Dec  7 14:36:20 2022


#	Modifying user name:	trannguyen
#	Modification time:	Wed Dec  7 14:36:20 2022

@<TRIPOS>MOLECULE
ZINC31452404
 31 33 0 0 0
SMALL
GASTEIGER

@<TRIPOS>ATOM
      1 N          17.5765  -25.7788   17.2445 N.am    1  UNL1       -0.2784
      2 C          17.7131  -25.0232   18.3521 C.2     1  UNL1        0.2709
      3 O          16.8790  -24.1847   18.6209 O.2     1  UNL1       -0.2707
      4 H          18.2924  -26.4017   16.9822 H       1  UNL1        0.1551
      5 C          15.1570  -24.5848   14.7386 C.ar    1  UNL1        0.1400
      6 C          14.1157  -25.4812   14.9297 C.ar    1  UNL1        0.0401
      7 C          14.2215  -26.4738   15.8859 C.ar    1  UNL1        0.0413
      8 C          15.3683  -26.5760   16.6563 C.ar    1  UNL1        0.1521
      9 C          16.4156  -25.6779   16.4663 C.ar    1  UNL1        0.0879
     10 C          16.3052  -24.6799   15.5096 C.ar    1  UNL1        0.0546
     11 O          15.0496  -23.6094   13.7974 O.3     1  UNL1       -0.4754
     12 C          16.3049  -24.1796   11.8126 C.3     1  UNL1        0.0512
     13 C          16.2287  -23.2908   13.0556 C.3     1  UNL1        0.2055
     14 O          15.4714  -27.5533   17.5972 O.3     1  UNL1       -0.4742
     15 C          15.6117  -28.8951   17.1262 C.3     1  UNL1        0.2056
     16 C          14.4393  -29.7382   17.6317 C.3     1  UNL1        0.0512
     17 C          18.9023  -25.2199   19.2565 C.3     1  UNL1        0.2931
     18 O          19.7477  -24.0404   19.2080 O.3     1  UNL1       -0.4343
     19 C          20.5789  -23.9258   18.1523 C.2     1  UNL1        0.3575
     20 O          21.2492  -24.8771   17.8004 O.2     1  UNL1       -0.2433
     21 C          20.6741  -22.6518   17.4274 C.ar    1  UNL1        0.1333
     22 C          20.2051  -21.4553   17.8710 C.ar    1  UNL1        0.0250
     23 C          20.4949  -20.4854   16.8816 C.ar    1  UNL1        0.0172
     24 C          20.2561  -19.1080   16.7857 C.ar    1  UNL1        0.0012
     25 C          20.6642  -18.4241   15.6779 C.ar    1  UNL1       -0.0042
     26 C          21.3162  -19.0805   14.6413 C.ar    1  UNL1       -0.0204
     27 C          21.5620  -20.4332   14.7117 C.ar    1  UNL1        0.0127
     28 C          21.1551  -21.1534   15.8318 C.ar    1  UNL1        0.0564
     29 N          21.2547  -22.4780   16.1855 N.ar    1  UNL1       -0.3481
     30 C          21.7580  -18.3042   13.4276 C.3     1  UNL1        0.0311
     31 H          21.6711  -23.1864   15.6432 H       1  UNL1        0.1661
@<TRIPOS>BOND
     1    12    13    1
     2    13    11    1
     3    11     5    1
     4     5    10   ar
     5     5     6   ar
     6     6     7   ar
     7     7     8   ar
     8     8     9   ar
     9     8    14    1
    10     9    10   ar
    11     9     1    1
    12     1     2   am
    13     2     3    2
    14     2    17    1
    15    17    18    1
    16    18    19    1
    17    19    20    2
    18    19    21    1
    19    21    29   ar
    20    21    22   ar
    21    22    23   ar
    22    23    28   ar
    23    23    24   ar
    24    24    25   ar
    25    25    26   ar
    26    26    27   ar
    27    26    30    1
    28    27    28   ar
    29    28    29   ar
    30    14    15    1
    31    15    16    1
    32     1     4    1
    33    29    31    1
#	Name:			ZINC31453866
#	Creating user name:	trannguyen
#	Creation time:		Wed Dec  7 14:36:19 2022


#	Modifying user name:	trannguyen
#	Modification time:	Wed Dec  7 14:36:19 2022

@<TRIPOS>MOLECULE
ZINC31453866
 34 36 0 0 0
SMALL
GASTEIGER

@<TRIPOS>ATOM
      1 N          22.3562  -21.6832   13.9720 N.am    1  UNL1       -0.3011
      2 C          21.7280  -20.6183   13.4355 C.2     1  UNL1        0.2628
      3 O          21.1495  -20.7262   12.3750 O.2     1  UNL1       -0.2712
      4 H          22.8257  -21.5956   14.8328 H       1  UNL1        0.1495
      5 C          21.7442  -19.2933   14.1535 C.3     1  UNL1        0.2444
      6 C          21.8495  -18.1603   13.1305 C.3     1  UNL1        0.0575
      7 O          20.5195  -19.1424   14.9186 O.3     1  UNL1       -0.4387
      8 C          20.6197  -19.2390   16.2598 C.2     1  UNL1        0.3574
      9 O          20.8717  -18.2520   16.9232 O.2     1  UNL1       -0.2433
     10 C          20.4246  -20.5370   16.9192 C.ar    1  UNL1        0.1333
     11 C          19.2306  -21.1657   17.0847 C.ar    1  UNL1        0.0250
     12 C          19.4752  -22.3837   17.7633 C.ar    1  UNL1        0.0172
     13 C          18.6460  -23.4259   18.1986 C.ar    1  UNL1        0.0012
     14 C          19.1873  -24.5000   18.8426 C.ar    1  UNL1       -0.0042
     15 C          20.5559  -24.5716   19.0720 C.ar    1  UNL1       -0.0204
     16 C          21.3914  -23.5604   18.6541 C.ar    1  UNL1        0.0127
     17 C          20.8630  -22.4539   17.9947 C.ar    1  UNL1        0.0564
     18 N          21.4262  -21.3171   17.4653 N.ar    1  UNL1       -0.3481
     19 C          21.1311  -25.7676   19.7859 C.3     1  UNL1        0.0311
     20 H          22.3853  -21.0951   17.4739 H       1  UNL1        0.1661
     21 C          22.3403  -22.9712   13.2741 C.3     1  UNL1        0.0942
     22 C          22.3939  -24.1067   14.2980 C.3     1  UNL1        0.0477
     23 C          18.4854  -25.7696   14.7951 C.ar    1  UNL1        0.1722
     24 C          19.4949  -26.0857   15.6901 C.ar    1  UNL1        0.0397
     25 C          20.7568  -25.5450   15.5278 C.ar    1  UNL1       -0.0009
     26 C          21.0164  -24.6930   14.4705 C.ar    1  UNL1       -0.0173
     27 C          20.0152  -24.3779   13.5707 C.ar    1  UNL1        0.0358
     28 C          18.7481  -24.9165   13.7276 C.ar    1  UNL1        0.1719
     29 O          17.2420  -26.2962   14.9565 O.3     1  UNL1       -0.4724
     30 C          15.4057  -24.7993   15.4338 C.3     1  UNL1        0.0512
     31 C          16.4435  -25.7620   16.0143 C.3     1  UNL1        0.2057
     32 O          17.7621  -24.6077   12.8433 O.3     1  UNL1       -0.4724
     33 C          18.0119  -24.8964   11.4662 C.3     1  UNL1        0.2057
     34 C          17.9777  -23.5974   10.6586 C.3     1  UNL1        0.0512
@<TRIPOS>BOND
     1    30    31    1
     2    31    29    1
     3    29    23    1
     4    23    28   ar
     5    23    24   ar
     6    24    25   ar
     7    25    26   ar
     8    26    27   ar
     9    26    22    1
    10    27    28   ar
    11    28    32    1
    12    32    33    1
    13    33    34    1
    14    22    21    1
    15    21     1    1
    16     1     2   am
    17     2     3    2
    18     2     5    1
    19     5     6    1
    20     5     7    1
    21     7     8    1
    22     8     9    2
    23     8    10    1
    24    10    18   ar
    25    10    11   ar
    26    11    12   ar
    27    12    17   ar
    28    12    13   ar
    29    13    14   ar
    30    14    15   ar
    31    15    16   ar
    32    15    19    1
    33    16    17   ar
    34    17    18   ar
    35     1     4    1
    36    18    20    1
#	Name:			ZINC31516724
#	Creating user name:	trannguyen
#	Creation time:		Wed Dec  7 14:36:19 2022


#	Modifying user name:	trannguyen
#	Modification time:	Wed Dec  7 14:36:19 2022

@<TRIPOS>MOLECULE
ZINC31516724
 34 35 0 0 0
SMALL
GASTEIGER

@<TRIPOS>ATOM
      1 N          19.8963  -23.1080   12.1958 N.am    1  UNL1       -0.3021
      2 C          20.3095  -22.0175   12.8715 C.2     1  UNL1        0.2244
      3 O          19.5134  -21.3620   13.5100 O.2     1  UNL1       -0.2750
      4 H          20.5425  -23.6401   11.6776 H       1  UNL1        0.1497
      5 C          18.4857  -23.5017   12.2325 C.3     1  UNL1        0.0942
      6 C          18.0052  -23.8103   10.8132 C.3     1  UNL1        0.0262
      7 C          18.0464  -26.9837   14.6761 C.ar    1  UNL1        0.1720
      8 C          19.2075  -26.7884   13.9457 C.ar    1  UNL1        0.0398
      9 C          19.3463  -25.6620   13.1563 C.ar    1  UNL1        0.0006
     10 C          18.3287  -24.7282   13.0939 C.ar    1  UNL1       -0.0013
     11 C          17.1699  -24.9143   13.8242 C.ar    1  UNL1        0.0374
     12 C          17.0220  -26.0441   14.6129 C.ar    1  UNL1        0.1721
     13 O          15.8805  -26.2313   15.3280 O.3     1  UNL1       -0.4684
     14 C          14.7072  -26.5895   14.5951 C.3     1  UNL1        0.2526
     15 O          17.9084  -28.0909   15.4535 O.3     1  UNL1       -0.4761
     16 C          19.0691  -29.0006   17.3682 C.3     1  UNL1        0.0472
     17 C          19.1085  -28.7526   15.8590 C.3     1  UNL1        0.1663
     18 C          19.2263  -30.0900   15.1253 C.3     1  UNL1        0.0472
     19 C          21.7605  -21.6125   12.8336 C.3     1  UNL1        0.1062
     20 C          22.4884  -22.2101   14.0394 C.3     1  UNL1        0.0993
     21 N          21.5083  -22.6120   15.0515 N.am    1  UNL1       -0.3004
     22 C          21.4180  -23.9034   15.4266 C.2     1  UNL1        0.2459
     23 O          22.1497  -24.7346   14.9253 O.2     1  UNL1       -0.2701
     24 H          20.9158  -21.9388   15.4576 H       1  UNL1        0.1498
     25 C          20.4249  -24.3099   16.4436 C.ar    1  UNL1        0.0533
     26 C          19.2270  -23.6055   16.5744 C.ar    1  UNL1        0.0042
     27 C          18.3026  -23.9928   17.5225 C.ar    1  UNL1       -0.0041
     28 C          18.5652  -25.0707   18.3493 C.ar    1  UNL1       -0.0228
     29 C          19.7527  -25.7703   18.2280 C.ar    1  UNL1       -0.0041
     30 C          20.6835  -25.3964   17.2808 C.ar    1  UNL1        0.0042
     31 C          17.5531  -25.4848   19.3862 C.3     1  UNL1        0.0189
     32 C          18.2411  -26.3263   20.4629 C.3     1  UNL1        0.0044
     33 C          16.9405  -24.2381   20.0274 C.3     1  UNL1        0.0044
     34 C          16.4500  -26.3105   18.7210 C.3     1  UNL1        0.0044
@<TRIPOS>BOND
     1    16    17    1
     2    17    18    1
     3    17    15    1
     4    15     7    1
     5     7    12   ar
     6     7     8   ar
     7     8     9   ar
     8     9    10   ar
     9    10    11   ar
    10    10     5    1
    11    11    12   ar
    12    12    13    1
    13    13    14    1
    14     5     6    1
    15     5     1    1
    16     1     2   am
    17     2     3    2
    18     2    19    1
    19    19    20    1
    20    20    21    1
    21    21    22   am
    22    22    23    2
    23    22    25    1
    24    25    30   ar
    25    25    26   ar
    26    26    27   ar
    27    27    28   ar
    28    28    29   ar
    29    28    31    1
    30    29    30   ar
    31    31    32    1
    32    31    33    1
    33    31    34    1
    34     1     4    1
    35    21    24    1
#	Name:			ZINC31567756
#	Creating user name:	trannguyen
#	Creation time:		Wed Dec  7 14:36:19 2022


#	Modifying user name:	trannguyen
#	Modification time:	Wed Dec  7 14:36:19 2022

@<TRIPOS>MOLECULE
ZINC31567756
 32 33 0 0 0
SMALL
GASTEIGER

@<TRIPOS>ATOM
      1 C          19.7036  -25.9962   15.4119 C.2     1  UNL1        0.3219
      2 O          20.2228  -27.0373   15.7377 O.2     1  UNL1       -0.2497
      3 O          20.0661  -25.3945   14.2680 O.3     1  UNL1       -0.4381
      4 C          21.4508  -24.9726   14.1553 C.3     1  UNL1        0.2927
      5 N          20.5325  -22.7161   14.5843 N.am    1  UNL1       -0.2811
      6 C          21.5856  -23.5547   14.6482 C.2     1  UNL1        0.2708
      7 O          22.6418  -23.1685   15.1025 O.2     1  UNL1       -0.2707
      8 H          19.6570  -23.0476   14.2793 H       1  UNL1        0.1550
      9 C          21.7974  -18.1182   13.3884 C.3     1  UNL1        0.0311
     10 C          21.2944  -19.1242   14.3914 C.ar    1  UNL1       -0.0206
     11 C          20.9821  -18.7211   15.6770 C.ar    1  UNL1       -0.0045
     12 C          20.5212  -19.6411   16.6004 C.ar    1  UNL1       -0.0034
     13 C          20.3712  -20.9665   16.2412 C.ar    1  UNL1       -0.0084
     14 C          20.6834  -21.3743   14.9513 C.ar    1  UNL1        0.0460
     15 C          21.1512  -20.4485   14.0275 C.ar    1  UNL1        0.0101
     16 C          19.8687  -21.9686   17.2483 C.3     1  UNL1        0.0323
     17 C          18.6489  -25.3730   16.2896 C.3     1  UNL1        0.1359
     18 C          17.2862  -25.6398   15.7037 C.ar    1  UNL1       -0.0110
     19 C          16.4184  -24.5891   15.4690 C.ar    1  UNL1       -0.0024
     20 C          15.1693  -24.8302   14.9313 C.ar    1  UNL1        0.0145
     21 C          14.7851  -26.1294   14.6267 C.ar    1  UNL1        0.0532
     22 C          15.6565  -27.1830   14.8693 C.ar    1  UNL1        0.0145
     23 C          16.9066  -26.9346   15.4015 C.ar    1  UNL1       -0.0024
     24 N          13.5201  -26.3770   14.0817 N.am    1  UNL1       -0.2499
     25 C          12.4700  -26.6096   14.8939 C.2     1  UNL1        0.4052
     26 O          12.6375  -26.6930   16.0945 O.2     1  UNL1       -0.2261
     27 H          13.3972  -26.3813   13.1048 H       1  UNL1        0.1582
     28 O          11.2355  -26.7496   14.3750 O.3     1  UNL1       -0.4417
     29 C          10.7568  -28.1049   14.1690 C.3     1  UNL1        0.1378
     30 C          11.9480  -29.0374   13.9405 C.3     1  UNL1        0.0437
     31 C           9.9790  -28.5643   15.4039 C.3     1  UNL1        0.0437
     32 C           9.8388  -28.1410   12.9454 C.3     1  UNL1        0.0437
@<TRIPOS>BOND
     1     9    10    1
     2    10    15   ar
     3    10    11   ar
     4    11    12   ar
     5    12    13   ar
     6    13    14   ar
     7    13    16    1
     8    14    15   ar
     9    14     5    1
    10     5     6   am
    11     6     7    2
    12     6     4    1
    13     4     3    1
    14     3     1    1
    15     1     2    2
    16     1    17    1
    17    17    18    1
    18    18    23   ar
    19    18    19   ar
    20    19    20   ar
    21    20    21   ar
    22    21    22   ar
    23    21    24    1
    24    22    23   ar
    25    24    25   am
    26    25    26    2
    27    25    28    1
    28    28    29    1
    29    29    30    1
    30    29    31    1
    31    29    32    1
    32     5     8    1
    33    24    27    1
#	Name:			ZINC31570482
#	Creating user name:	trannguyen
#	Creation time:		Wed Dec  7 14:36:20 2022


#	Modifying user name:	trannguyen
#	Modification time:	Wed Dec  7 14:36:20 2022

@<TRIPOS>MOLECULE
ZINC31570482
 36 37 0 0 0
SMALL
GASTEIGER

@<TRIPOS>ATOM
      1 O          22.1743  -26.7790   18.3504 O.3     1  UNL1       -0.4426
      2 C          20.7382  -26.0562   20.1794 C.3     1  UNL1        0.0575
      3 C          20.9534  -26.0586   18.6647 C.3     1  UNL1        0.2444
      4 C          21.0666  -24.6392   18.1711 C.2     1  UNL1        0.2664
      5 O          22.0808  -24.0057   18.3737 O.2     1  UNL1       -0.2709
      6 N          20.0407  -24.0738   17.5045 N.am    1  UNL1       -0.2810
      7 H          19.1899  -24.5595   17.4065 H       1  UNL1        0.1550
      8 C          20.1849  -22.7947   16.9511 C.ar    1  UNL1        0.0506
      9 C          20.5314  -22.6515   15.6142 C.ar    1  UNL1        0.0178
     10 C          20.6682  -21.3906   15.0679 C.ar    1  UNL1        0.0385
     11 C          20.4707  -20.2672   15.8575 C.ar    1  UNL1        0.1469
     12 C          20.1297  -20.4096   17.1946 C.ar    1  UNL1        0.0385
     13 C          19.9869  -21.6699   17.7406 C.ar    1  UNL1        0.0178
     14 O          20.6112  -19.0260   15.3205 O.3     1  UNL1       -0.4045
     15 C          21.9406  -18.5140   15.2091 C.3     1  UNL1        0.5753
     16 F          22.1416  -17.5237   16.1766 F       1  UNL1       -0.1328
     17 F          22.8581  -19.5516   15.4064 F       1  UNL1       -0.1328
     18 F          22.1238  -17.9655   13.9352 F       1  UNL1       -0.1328
     19 C          22.0398  -28.0235   17.8657 C.2     1  UNL1        0.3218
     20 O          22.9512  -28.8109   17.9613 O.2     1  UNL1       -0.2497
     21 C          20.7518  -28.4386   17.2025 C.3     1  UNL1        0.1359
     22 C          20.9530  -28.5021   15.7103 C.ar    1  UNL1       -0.0110
     23 C          20.7972  -27.3617   14.9439 C.ar    1  UNL1       -0.0024
     24 C          20.9809  -27.4166   13.5762 C.ar    1  UNL1        0.0145
     25 C          21.3223  -28.6187   12.9707 C.ar    1  UNL1        0.0532
     26 C          21.4780  -29.7622   13.7431 C.ar    1  UNL1        0.0145
     27 C          21.2930  -29.7007   15.1104 C.ar    1  UNL1       -0.0024
     28 N          21.5087  -28.6779   11.5849 N.am    1  UNL1       -0.2499
     29 C          22.5805  -28.0843   11.0231 C.2     1  UNL1        0.4052
     30 O          23.3394  -27.4271   11.7078 O.2     1  UNL1       -0.2261
     31 H          20.8569  -29.1530   11.0204 H       1  UNL1        0.1582
     32 O          22.8102  -28.2194    9.7034 O.3     1  UNL1       -0.4417
     33 C          23.9443  -29.0371    9.3118 C.3     1  UNL1        0.1378
     34 C          24.6093  -28.4284    8.0756 C.3     1  UNL1        0.0437
     35 C          24.9545  -29.0914   10.4596 C.3     1  UNL1        0.0437
     36 C          23.4642  -30.4532    8.9875 C.3     1  UNL1        0.0437
@<TRIPOS>BOND
     1     2     3    1
     2     3     4    1
     3     3     1    1
     4     4     5    2
     5     4     6   am
     6     6     8    1
     7     8    13   ar
     8     8     9   ar
     9     9    10   ar
    10    10    11   ar
    11    11    12   ar
    12    11    14    1
    13    12    13   ar
    14    14    15    1
    15    15    16    1
    16    15    17    1
    17    15    18    1
    18     1    19    1
    19    19    20    2
    20    19    21    1
    21    21    22    1
    22    22    27   ar
    23    22    23   ar
    24    23    24   ar
    25    24    25   ar
    26    25    26   ar
    27    25    28    1
    28    26    27   ar
    29    28    29   am
    30    29    30    2
    31    29    32    1
    32    32    33    1
    33    33    34    1
    34    33    35    1
    35    33    36    1
    36     6     7    1
    37    28    31    1
#	Name:			ZINC31603566
#	Creating user name:	trannguyen
#	Creation time:		Wed Dec  7 14:36:19 2022


#	Modifying user name:	trannguyen
#	Modification time:	Wed Dec  7 14:36:19 2022

@<TRIPOS>MOLECULE
ZINC31603566
 32 33 0 0 0
SMALL
GASTEIGER

@<TRIPOS>ATOM
      1 C          21.0525  -19.4222   14.0588 C.3     1  UNL1        0.2927
      2 N          19.8765  -21.5700   13.7083 N.am    1  UNL1       -0.2992
      3 C          20.8279  -20.7059   13.3021 C.2     1  UNL1        0.2673
      4 O          21.5032  -20.9617   12.3278 O.2     1  UNL1       -0.2711
      5 H          19.3283  -21.3624   14.4993 H       1  UNL1        0.1498
      6 C          19.6581  -22.8179   12.9727 C.3     1  UNL1        0.0942
      7 C          18.2680  -22.7968   12.3338 C.3     1  UNL1        0.0262
      8 C          19.9386  -26.1248   15.6621 C.ar    1  UNL1       -0.0225
      9 C          18.6989  -25.6343   15.2967 C.ar    1  UNL1       -0.0045
     10 C          18.6081  -24.5641   14.4265 C.ar    1  UNL1       -0.0030
     11 C          19.7571  -23.9843   13.9217 C.ar    1  UNL1       -0.0045
     12 C          20.9966  -24.4781   14.2831 C.ar    1  UNL1       -0.0030
     13 C          21.0875  -25.5450   15.1574 C.ar    1  UNL1       -0.0045
     14 C          18.6474  -27.8935   16.8256 C.3     1  UNL1        0.0047
     15 C          20.0376  -27.2918   16.6105 C.3     1  UNL1        0.0224
     16 C          20.9666  -28.3532   16.0179 C.3     1  UNL1        0.0047
     17 O          21.6359  -19.7200   15.3547 O.3     1  UNL1       -0.4353
     18 C          20.8801  -19.4593   16.4411 C.2     1  UNL1        0.3419
     19 O          20.6339  -18.3090   16.7486 O.2     1  UNL1       -0.2449
     20 C          20.3560  -20.5617   17.2500 C.2     1  UNL1        0.0819
     21 C          20.7459  -21.8275   16.9978 C.2     1  UNL1        0.0066
     22 C          20.2190  -22.9360   17.8110 C.ar    1  UNL1        0.0002
     23 C          18.8376  -23.1214   17.9306 C.ar    1  UNL1        0.0001
     24 C          18.3462  -24.1613   18.6870 C.ar    1  UNL1        0.0045
     25 C          19.2262  -25.0245   19.3439 C.ar    1  UNL1        0.0534
     26 C          20.6056  -24.8372   19.2295 C.ar    1  UNL1        0.0045
     27 C          21.0994  -23.8013   18.4695 C.ar    1  UNL1        0.0001
     28 C          18.6968  -26.1373   20.1616 C.2     1  UNL1        0.2459
     29 O          19.3393  -27.1620   20.2820 O.2     1  UNL1       -0.2701
     30 N          17.5021  -26.0152   20.7732 N.am    1  UNL1       -0.2992
     31 C          16.9778  -27.1176   21.5831 C.3     1  UNL1        0.1109
     32 H          16.9818  -25.1852   20.6756 H       1  UNL1        0.1498
@<TRIPOS>BOND
     1    14    15    1
     2    15    16    1
     3    15     8    1
     4     8    13   ar
     5     8     9   ar
     6     9    10   ar
     7    10    11   ar
     8    11    12   ar
     9    11     6    1
    10    12    13   ar
    11     6     7    1
    12     6     2    1
    13     2     3   am
    14     3     4    2
    15     3     1    1
    16     1    17    1
    17    17    18    1
    18    18    19    2
    19    18    20    1
    20    20    21    2
    21    21    22    1
    22    22    27   ar
    23    22    23   ar
    24    23    24   ar
    25    24    25   ar
    26    25    26   ar
    27    25    28    1
    28    26    27   ar
    29    28    29    2
    30    28    30   am
    31    30    31    1
    32     2     5    1
    33    30    32    1
#	Name:			ZINC31604266
#	Creating user name:	trannguyen
#	Creation time:		Wed Dec  7 14:36:19 2022


#	Modifying user name:	trannguyen
#	Modification time:	Wed Dec  7 14:36:19 2022

@<TRIPOS>MOLECULE
ZINC31604266
 35 37 0 0 0
SMALL
GASTEIGER

@<TRIPOS>ATOM
      1 C          22.6435  -23.0466   13.2001 C.2     1  UNL1        0.2673
      2 O          22.8819  -22.3398   12.2438 O.2     1  UNL1       -0.2711
      3 N          21.5164  -22.8565   13.9143 N.am    1  UNL1       -0.2988
      4 H          21.3229  -23.4301   14.6906 H       1  UNL1        0.1498
      5 C          23.6075  -24.1374   13.5897 C.3     1  UNL1        0.2927
      6 O          22.8908  -25.1908   14.2861 O.3     1  UNL1       -0.4353
      7 C          22.1435  -26.0241   13.5334 C.2     1  UNL1        0.3419
      8 O          22.6792  -26.7621   12.7290 O.2     1  UNL1       -0.2449
      9 C          20.1271  -25.7451   14.8724 C.2     1  UNL1        0.0066
     10 C          20.6866  -26.0358   13.6806 C.2     1  UNL1        0.0819
     11 C          15.9019  -25.7796   15.2992 C.ar    1  UNL1        0.0534
     12 C          16.5018  -26.4617   14.2381 C.ar    1  UNL1        0.0045
     13 C          17.8712  -26.4514   14.0989 C.ar    1  UNL1        0.0001
     14 C          18.6622  -25.7569   15.0204 C.ar    1  UNL1        0.0002
     15 C          18.0606  -25.0786   16.0858 C.ar    1  UNL1        0.0001
     16 C          16.6906  -25.0859   16.2199 C.ar    1  UNL1        0.0045
     17 C          12.3702  -26.8219   16.2430 C.3     1  UNL1        0.1109
     18 N          13.8277  -26.8093   16.0953 N.am    1  UNL1       -0.2992
     19 C          14.4307  -25.7924   15.4482 C.2     1  UNL1        0.2459
     20 O          13.7653  -24.8857   14.9871 O.2     1  UNL1       -0.2701
     21 H          14.3667  -27.5436   16.4688 H       1  UNL1        0.1498
     22 C          20.5793  -21.7961   13.5355 C.3     1  UNL1        0.0985
     23 C          21.0788  -20.4738   14.0584 C.ar    1  UNL1       -0.0042
     24 C          21.2316  -20.2818   15.4188 C.ar    1  UNL1       -0.0027
     25 C          21.6940  -19.0705   15.8982 C.ar    1  UNL1       -0.0003
     26 C          21.9944  -18.0480   15.0177 C.ar    1  UNL1       -0.0000
     27 C          21.8370  -18.2383   13.6577 C.ar    1  UNL1       -0.0003
     28 C          21.3788  -19.4512   13.1779 C.ar    1  UNL1       -0.0027
     29 C          19.2030  -22.0940   14.1337 C.3     1  UNL1        0.0504
     30 C          18.3393  -22.7653   13.0971 C.ar    1  UNL1       -0.0202
     31 C          16.9721  -22.8463   13.2840 C.ar    1  UNL1       -0.0042
     32 C          16.1793  -23.4578   12.3308 C.ar    1  UNL1       -0.0003
     33 C          16.7550  -23.9975   11.1958 C.ar    1  UNL1       -0.0000
     34 C          18.1229  -23.9210   11.0114 C.ar    1  UNL1       -0.0003
     35 C          18.9151  -23.3049   11.9621 C.ar    1  UNL1       -0.0042
@<TRIPOS>BOND
     1    17    18    1
     2    18    19   am
     3    19    20    2
     4    19    11    1
     5    11    16   ar
     6    11    12   ar
     7    12    13   ar
     8    13    14   ar
     9    14    15   ar
    10    14     9    1
    11    15    16   ar
    12     9    10    2
    13    10     7    1
    14     7     8    2
    15     7     6    1
    16     6     5    1
    17     5     1    1
    18     1     2    2
    19     1     3   am
    20     3    22    1
    21    22    29    1
    22    22    23    1
    23    29    30    1
    24    30    35   ar
    25    30    31   ar
    26    31    32   ar
    27    32    33   ar
    28    33    34   ar
    29    34    35   ar
    30    23    28   ar
    31    23    24   ar
    32    24    25   ar
    33    25    26   ar
    34    26    27   ar
    35    27    28   ar
    36    18    21    1
    37     3     4    1
#	Name:			ZINC31605431
#	Creating user name:	trannguyen
#	Creation time:		Wed Dec  7 14:36:19 2022


#	Modifying user name:	trannguyen
#	Modification time:	Wed Dec  7 14:36:19 2022

@<TRIPOS>MOLECULE
ZINC31605431
 29 30 0 0 0
SMALL
GASTEIGER

@<TRIPOS>ATOM
      1 N          21.6830  -20.9958   16.3367 N.am    1  UNL1       -0.2807
      2 C          20.7038  -20.8906   17.2568 C.2     1  UNL1        0.2708
      3 O          19.8401  -20.0489   17.1296 O.2     1  UNL1       -0.2707
      4 H          22.4198  -21.6344   16.4729 H       1  UNL1        0.1550
      5 C          21.2286  -20.7419   13.9702 C.ar    1  UNL1        0.0668
      6 C          21.2021  -19.9342   12.8308 C.ar    1  UNL1        0.0058
      7 C          21.5910  -18.6149   12.9144 C.ar    1  UNL1        0.0002
      8 C          22.0087  -18.0837   14.1241 C.ar    1  UNL1        0.0013
      9 C          22.0357  -18.8682   15.2593 C.ar    1  UNL1        0.0148
     10 C          21.6524  -20.2012   15.1931 C.ar    1  UNL1        0.0548
     11 N          19.5720  -22.4689   13.4665 N.am    1  UNL1       -0.3008
     12 C          20.8130  -22.1549   13.8879 C.2     1  UNL1        0.2471
     13 O          21.5902  -23.0363   14.2004 O.2     1  UNL1       -0.2701
     14 H          18.9428  -21.7553   13.2136 H       1  UNL1        0.1497
     15 C          19.1593  -23.8723   13.3848 C.3     1  UNL1        0.0896
     16 C          16.7948  -23.1221   13.0864 C.3     1  UNL1        0.0017
     17 C          17.9141  -23.9872   12.5035 C.3     1  UNL1        0.0196
     18 C          18.2447  -23.5080   11.0886 C.3     1  UNL1        0.0017
     19 C          20.6822  -21.8190   18.4437 C.3     1  UNL1        0.2927
     20 O          20.3898  -23.1692   17.9967 O.3     1  UNL1       -0.4377
     21 C          21.0426  -24.1690   18.6099 C.2     1  UNL1        0.3289
     22 O          22.2287  -24.0763   18.8207 O.2     1  UNL1       -0.2491
     23 C          20.2962  -25.4070   19.0356 C.3     1  UNL1        0.1719
     24 S          18.5322  -25.0203   19.2077 S.3     1  UNL1       -0.0954
     25 C          17.8374  -25.5018   17.6617 C.ar    1  UNL1        0.0551
     26 C          16.5983  -25.2392   17.1580 C.ar    1  UNL1        0.0132
     27 C          16.2731  -25.7241   15.9037 C.ar    1  UNL1        0.0080
     28 C          17.1887  -26.4516   15.2213 C.ar    1  UNL1        0.0359
     29 S          18.5707  -26.4672   16.3511 S.2     1  UNL1       -0.0802
@<TRIPOS>BOND
     1    16    17    1
     2    17    18    1
     3    17    15    1
     4    15    11    1
     5    11    12   am
     6    12    13    2
     7    12     5    1
     8     5    10   ar
     9     5     6   ar
    10     6     7   ar
    11     7     8   ar
    12     8     9   ar
    13     9    10   ar
    14    10     1    1
    15     1     2   am
    16     2     3    2
    17     2    19    1
    18    19    20    1
    19    20    21    1
    20    21    22    2
    21    21    23    1
    22    23    24    1
    23    24    25    1
    24    25    29   ar
    25    25    26   ar
    26    26    27   ar
    27    27    28   ar
    28    28    29   ar
    29    11    14    1
    30     1     4    1
#	Name:			ZINC31707892
#	Creating user name:	trannguyen
#	Creation time:		Wed Dec  7 14:36:19 2022


#	Modifying user name:	trannguyen
#	Modification time:	Wed Dec  7 14:36:19 2022

@<TRIPOS>MOLECULE
ZINC31707892
 40 42 0 0 0
SMALL
GASTEIGER

@<TRIPOS>ATOM
      1 N          17.5529  -25.1047   12.8999 N.ar    1  UNL1       -0.2739
      2 C          17.1064  -23.9483   12.3321 C.ar    1  UNL1        0.1410
      3 C          15.9635  -23.3635   12.7575 C.ar    1  UNL1        0.1294
      4 N          15.2324  -23.8885   13.7394 N.ar    1  UNL1       -0.2223
      5 C          15.6030  -25.0034   14.3325 C.ar    1  UNL1        0.1857
      6 C          16.8341  -25.6689   13.8961 C.ar    1  UNL1        0.2934
      7 O          17.2033  -26.7055   14.4221 O.2     1  UNL1       -0.2639
      8 CL         18.0167  -23.2169   11.0475 Cl      1  UNL1       -0.0614
      9 N          14.8348  -25.5451   15.3564 N.pl3   1  UNL1       -0.3095
     10 H          15.2167  -25.6451   16.2583 H       1  UNL1        0.1485
     11 C          13.4568  -25.9671   15.0936 C.3     1  UNL1        0.1620
     12 C          13.3358  -27.4770   15.3096 C.3     1  UNL1        0.3174
     13 F          14.3544  -28.1314   14.6085 F       1  UNL1       -0.1960
     14 F          13.4504  -27.7635   16.6741 F       1  UNL1       -0.1960
     15 C          11.9961  -27.9504   14.8076 C.ar    1  UNL1        0.1416
     16 C          10.9794  -28.2036   15.7088 C.ar    1  UNL1        0.0218
     17 C           9.7495  -28.6347   15.2364 C.ar    1  UNL1        0.0031
     18 C           9.5899  -28.8060   13.8695 C.ar    1  UNL1        0.0223
     19 C          10.6527  -28.5379   13.0287 C.ar    1  UNL1        0.1210
     20 N          11.8088  -28.1239   13.5128 N.ar    1  UNL1       -0.1275
     21 O          12.8756  -27.8594   12.6200 O.2     1  UNL1       -0.1634
     22 C          18.7921  -25.7309   12.4325 C.3     1  UNL1        0.1948
     23 N          20.0336  -24.0548   13.7621 N.am    1  UNL1       -0.2988
     24 C          19.9297  -25.3291   13.3355 C.2     1  UNL1        0.2459
     25 O          20.7516  -26.1522   13.6783 O.2     1  UNL1       -0.2730
     26 H          19.3664  -23.3866   13.4838 H       1  UNL1        0.1498
     27 C          21.1396  -23.6641   14.6399 C.3     1  UNL1        0.1195
     28 C          20.0483  -22.3749   16.4932 C.ar    1  UNL1        0.1731
     29 C          19.5944  -22.2724   17.8003 C.ar    1  UNL1        0.0396
     30 C          19.7228  -23.3451   18.6609 C.ar    1  UNL1        0.0032
     31 C          20.3128  -24.5169   18.2238 C.ar    1  UNL1       -0.0001
     32 C          20.7711  -24.6196   16.9236 C.ar    1  UNL1        0.0005
     33 C          20.6402  -23.5513   16.0573 C.ar    1  UNL1        0.0344
     34 O          19.9184  -21.3226   15.6430 O.3     1  UNL1       -0.3239
     35 S          20.6911  -20.0828   16.0700 S.O2    1  UNL1        0.2545
     36 O          19.9764  -19.5137   17.1584 O.2     1  UNL1       -0.1075
     37 O          22.0546  -20.4695   16.1730 O.2     1  UNL1       -0.1075
     38 O          20.6076  -19.0838   14.9249 O.3     1  UNL1       -0.1934
     39 C          21.8862  -18.2497   13.0513 C.3     1  UNL1        0.0375
     40 C          21.3157  -19.4854   13.7504 C.3     1  UNL1        0.1779
@<TRIPOS>BOND
     1    39    40    1
     2    40    38    1
     3    38    35    1
     4    35    36    2
     5    35    37    2
     6    35    34    1
     7    34    28    1
     8    28    33   ar
     9    28    29   ar
    10    29    30   ar
    11    30    31   ar
    12    31    32   ar
    13    32    33   ar
    14    33    27    1
    15    27    23    1
    16    23    24   am
    17    24    25    2
    18    24    22    1
    19    22     1    1
    20     1     6   ar
    21     1     2   ar
    22     2     3   ar
    23     2     8    1
    24     3     4   ar
    25     4     5   ar
    26     5     6   ar
    27     5     9    1
    28     6     7    2
    29     9    11    1
    30    11    12    1
    31    12    15    1
    32    12    13    1
    33    12    14    1
    34    15    20   ar
    35    15    16   ar
    36    16    17   ar
    37    17    18   ar
    38    18    19   ar
    39    19    20   ar
    40    20    21    2
    41    23    26    1
    42     9    10    1
#	Name:			ZINC31721415
#	Creating user name:	trannguyen
#	Creation time:		Wed Dec  7 14:36:19 2022


#	Modifying user name:	trannguyen
#	Modification time:	Wed Dec  7 14:36:19 2022

@<TRIPOS>MOLECULE
ZINC31721415
 33 35 0 0 0
SMALL
GASTEIGER

@<TRIPOS>ATOM
      1 S          19.7181  -23.1458   13.3345 S.O2    1  UNL1       -0.0578
      2 O          20.3640  -22.2826   12.4088 O.2     1  UNL1       -0.1842
      3 O          19.9283  -24.5512   13.3400 O.2     1  UNL1       -0.1842
      4 C          20.6816  -23.0183   17.2464 C.ar    1  UNL1        0.0771
      5 C          20.8115  -21.6519   17.4869 C.ar    1  UNL1        0.0130
      6 C          20.6051  -20.7454   16.4488 C.ar    1  UNL1        0.0771
      7 C          20.2698  -21.2117   15.1749 C.ar    1  UNL1        0.0233
      8 C          20.1424  -22.5669   14.9436 C.ar    1  UNL1        0.0897
      9 C          20.3511  -23.4709   15.9663 C.ar    1  UNL1        0.0233
     10 C          20.8990  -23.9867   18.3408 C.2     1  UNL1        0.3414
     11 O          22.0185  -24.3938   18.5782 O.2     1  UNL1       -0.2449
     12 C          19.2197  -25.6542   18.6549 C.3     1  UNL1        0.2560
     13 O          19.8555  -24.4184   19.0754 O.3     1  UNL1       -0.4413
     14 C          20.7411  -19.2949   16.6943 C.2     1  UNL1        0.3414
     15 O          19.7785  -18.6467   17.0529 O.2     1  UNL1       -0.2449
     16 O          21.9327  -18.6911   16.5203 O.3     1  UNL1       -0.4413
     17 C          22.2206  -18.1701   15.1960 C.3     1  UNL1        0.2560
     18 N          18.0899  -22.9116   13.1434 N.pl3   1  UNL1       -0.5358
     19 C          17.1902  -23.9029   13.5415 C.ar    1  UNL1       -0.1122
     20 C          16.4669  -24.6097   12.5891 C.ar    1  UNL1       -0.0225
     21 C          15.5816  -25.5926   12.9860 C.ar    1  UNL1        0.0180
     22 C          15.4071  -25.8663   14.3302 C.ar    1  UNL1        0.1218
     23 C          16.1216  -25.1610   15.2811 C.ar    1  UNL1        0.0180
     24 C          17.0124  -24.1805   14.8909 C.ar    1  UNL1       -0.0225
     25 S          14.2721  -27.1169   14.8324 S.O2    1  UNL1        0.0602
     26 O          15.0314  -28.3036   15.0184 O.2     1  UNL1       -0.1530
     27 O          13.4761  -26.5521   15.8652 O.2     1  UNL1       -0.1530
     28 N          13.2577  -27.3995   13.5542 N.3     1  UNL1       -0.1794
     29 H          13.7071  -27.0034   12.7286 H       1  UNL1        0.1488
     30 C          12.8766  -28.7717   13.2110 C.3     1  UNL1        0.0914
     31 C          11.4404  -29.0321   13.6696 C.3     1  UNL1        0.0175
     32 C          10.3096  -28.5510   12.7581 C.3     1  UNL1        0.0015
     33 C          10.5967  -27.8208   14.0716 C.3     1  UNL1        0.0015
@<TRIPOS>UNITY_ATOM_ATTR
18 1
charge -1
@<TRIPOS>BOND
     1    12    13    1
     2    13    10    1
     3    10    11    2
     4    10     4    1
     5     4     9   ar
     6     4     5   ar
     7     5     6   ar
     8     6     7   ar
     9     6    14    1
    10     7     8   ar
    11     8     9   ar
    12     8     1    1
    13     1     2    2
    14     1     3    2
    15     1    18    1
    16    18    19    1
    17    19    24   ar
    18    19    20   ar
    19    20    21   ar
    20    21    22   ar
    21    22    23   ar
    22    22    25    1
    23    23    24   ar
    24    25    26    2
    25    25    27    2
    26    25    28    1
    27    28    30    1
    28    30    31    1
    29    31    33    1
    30    31    32    1
    31    32    33    1
    32    14    15    2
    33    14    16    1
    34    16    17    1
    35    28    29    1
#	Name:			ZINC31757696
#	Creating user name:	trannguyen
#	Creation time:		Wed Dec  7 14:36:19 2022


#	Modifying user name:	trannguyen
#	Modification time:	Wed Dec  7 14:36:19 2022

@<TRIPOS>MOLECULE
ZINC31757696
 31 32 0 0 0
SMALL
GASTEIGER

@<TRIPOS>ATOM
      1 N          16.7561  -24.4610   12.7330 N.am    1  UNL1       -0.3007
      2 C          15.8594  -24.1676   13.6955 C.2     1  UNL1        0.2459
      3 O          15.0992  -23.2300   13.5525 O.2     1  UNL1       -0.2701
      4 H          17.3718  -25.2204   12.8488 H       1  UNL1        0.1497
      5 C          15.8005  -24.9863   14.9252 C.ar    1  UNL1        0.0547
      6 C          16.8705  -24.9829   15.8215 C.ar    1  UNL1        0.0046
      7 C          16.8073  -25.7457   16.9691 C.ar    1  UNL1        0.0015
      8 C          15.6905  -26.5208   17.2277 C.ar    1  UNL1        0.0199
      9 C          14.6286  -26.5322   16.3412 C.ar    1  UNL1        0.1221
     10 C          14.6771  -25.7701   15.1920 C.ar    1  UNL1        0.0244
     11 S          13.2112  -27.5227   16.6800 S.O2    1  UNL1        0.0605
     12 O          13.4604  -28.7982   16.1051 O.2     1  UNL1       -0.1530
     13 O          12.9177  -27.3533   18.0599 O.2     1  UNL1       -0.1530
     14 N          11.9430  -26.8655   15.8421 N.3     1  UNL1       -0.1749
     15 H          12.3454  -26.3010   15.0938 H       1  UNL1        0.1492
     16 C          10.9435  -27.7389   15.2222 C.3     1  UNL1        0.1175
     17 C          10.8260  -27.4069   13.7569 C.2     1  UNL1       -0.0074
     18 C          10.4567  -28.3299   12.9038 C.2     1  UNL1       -0.0034
     19 C          16.8146  -23.6499   11.5144 C.3     1  UNL1        0.0935
     20 C          18.2718  -23.4940   11.0749 C.3     1  UNL1        0.0686
     21 C          19.1754  -23.4559   12.3090 C.3     1  UNL1        0.2072
     22 O          19.7384  -22.1497   12.4470 O.3     1  UNL1       -0.4757
     23 C          19.5947  -22.9054   17.2668 C.3     1  UNL1        0.0311
     24 C          20.0371  -22.0997   16.0725 C.ar    1  UNL1       -0.0192
     25 C          20.7992  -20.9599   16.2520 C.ar    1  UNL1       -0.0086
     26 C          21.2061  -20.2184   15.1585 C.ar    1  UNL1       -0.0232
     27 C          20.8577  -20.6184   13.8827 C.ar    1  UNL1        0.0082
     28 C          20.0880  -21.7579   13.7005 C.ar    1  UNL1        0.1339
     29 C          19.6804  -22.5001   14.7996 C.ar    1  UNL1        0.0323
     30 C          21.3073  -19.8133   12.6908 C.3     1  UNL1        0.0339
     31 C          22.0363  -18.9765   15.3578 C.3     1  UNL1        0.0308
@<TRIPOS>BOND
     1    23    24    1
     2    24    29   ar
     3    24    25   ar
     4    25    26   ar
     5    26    27   ar
     6    26    31    1
     7    27    28   ar
     8    27    30    1
     9    28    29   ar
    10    28    22    1
    11    22    21    1
    12    21    20    1
    13    20    19    1
    14    19     1    1
    15     1     2   am
    16     2     3    2
    17     2     5    1
    18     5    10   ar
    19     5     6   ar
    20     6     7   ar
    21     7     8   ar
    22     8     9   ar
    23     9    10   ar
    24     9    11    1
    25    11    12    2
    26    11    13    2
    27    11    14    1
    28    14    16    1
    29    16    17    1
    30    17    18    2
    31     1     4    1
    32    14    15    1
#	Name:			ZINC31783037
#	Creating user name:	trannguyen
#	Creation time:		Wed Dec  7 14:36:20 2022


#	Modifying user name:	trannguyen
#	Modification time:	Wed Dec  7 14:36:20 2022

@<TRIPOS>MOLECULE
ZINC31783037
 33 36 0 0 0
SMALL
GASTEIGER

@<TRIPOS>ATOM
      1 C          18.4129  -25.2944   15.5459 C.ar    1  UNL1        0.1072
      2 C          17.0259  -25.2670   15.7547 C.ar    1  UNL1        0.0300
      3 C          16.1877  -24.8986   14.7140 C.ar    1  UNL1        0.0568
      4 C          16.8138  -24.5541   13.4364 C.ar    1  UNL1        0.0221
      5 C          16.0506  -24.1699   12.3286 C.ar    1  UNL1        0.0016
      6 C          16.6744  -23.8569   11.1571 C.ar    1  UNL1        0.0001
      7 C          18.0618  -23.9152   11.0502 C.ar    1  UNL1        0.0015
      8 C          18.8331  -24.2853   12.1093 C.ar    1  UNL1        0.0191
      9 C          18.2249  -24.6151   13.3334 C.ar    1  UNL1        0.0820
     10 N          18.9563  -24.9767   14.3918 N.ar    1  UNL1       -0.2391
     11 C          14.7192  -24.8557   14.8875 C.2     1  UNL1        0.2459
     12 O          14.1463  -23.7859   14.9550 O.2     1  UNL1       -0.2701
     13 N          14.0167  -26.0028   14.9707 N.am    1  UNL1       -0.3025
     14 H          14.4809  -26.8694   14.9160 H       1  UNL1        0.1497
     15 C          12.5624  -25.9603   15.1425 C.3     1  UNL1        0.0720
     16 C          11.8970  -27.1549   15.8288 C.3     1  UNL1        0.0213
     17 C          11.7252  -26.9439   14.3224 C.3     1  UNL1        0.0213
     18 S          19.4640  -25.7644   16.8797 S.3     1  UNL1       -0.0865
     19 C          19.2341  -24.3433   17.9768 C.3     1  UNL1        0.1297
     20 C          20.1845  -23.2432   17.5796 C.2     1  UNL1        0.2373
     21 O          21.1803  -23.0344   18.2396 O.2     1  UNL1       -0.2738
     22 N          19.9278  -22.4914   16.4909 N.am    1  UNL1       -0.2660
     23 H          19.1195  -22.6609   15.9550 H       1  UNL1        0.1564
     24 C          20.8074  -21.4730   16.1232 C.ar    1  UNL1        0.1760
     25 C          20.6495  -20.0821   16.3629 C.ar    1  UNL1        0.0734
     26 C          21.7580  -19.5296   15.8196 C.ar    1  UNL1        0.1562
     27 O          22.4811  -20.5391   15.3140 O.2     1  UNL1       -0.3565
     28 N          21.9428  -21.6075   15.4895 N.ar    1  UNL1       -0.0621
     29 C          22.1116  -18.0649   15.7890 C.3     1  UNL1        0.0754
     30 C          19.5151  -24.7632   19.4209 C.3     1  UNL1        0.0204
     31 C          18.3674  -24.2985   20.3196 C.3     1  UNL1        0.0014
     32 C          16.2392  -25.5504   19.9372 C.3     1  UNL1        0.0000
     33 C          17.0579  -24.3240   19.5288 C.3     1  UNL1        0.0000
@<TRIPOS>BOND
     1    32    33    1
     2    33    31    1
     3    31    30    1
     4    30    19    1
     5    19    20    1
     6    19    18    1
     7    20    21    2
     8    20    22   am
     9    22    24    1
    10    24    28   ar
    11    24    25   ar
    12    25    26   ar
    13    26    27   ar
    14    26    29    1
    15    27    28   ar
    16    18     1    1
    17     1    10   ar
    18     1     2   ar
    19     2     3   ar
    20     3     4   ar
    21     3    11    1
    22     4     9   ar
    23     4     5   ar
    24     5     6   ar
    25     6     7   ar
    26     7     8   ar
    27     8     9   ar
    28     9    10   ar
    29    11    12    2
    30    11    13   am
    31    13    15    1
    32    15    17    1
    33    15    16    1
    34    16    17    1
    35    22    23    1
    36    13    14    1
#	Name:			ZINC31784419
#	Creating user name:	trannguyen
#	Creation time:		Wed Dec  7 14:36:19 2022


#	Modifying user name:	trannguyen
#	Modification time:	Wed Dec  7 14:36:19 2022

@<TRIPOS>MOLECULE
ZINC31784419
 36 40 0 0 0
SMALL
GASTEIGER

@<TRIPOS>ATOM
      1 N          18.0646  -25.4782   17.0435 N.am    1  UNL1       -0.2634
      2 C          16.7979  -25.4037   17.4980 C.2     1  UNL1        0.2390
      3 O          16.4719  -24.5011   18.2397 O.2     1  UNL1       -0.2738
      4 H          18.3293  -26.2110   16.4416 H       1  UNL1        0.1568
      5 C          20.2771  -22.6075   17.3144 C.ar    1  UNL1        0.0927
      6 C          20.8549  -22.9228   18.5124 C.ar    1  UNL1        0.0573
      7 S          20.0201  -24.4585   18.8889 S.2     1  UNL1       -0.0508
      8 C          18.9969  -24.5210   17.4245 C.ar    1  UNL1        0.1655
      9 N          19.3581  -23.4131   16.8039 N.ar    1  UNL1       -0.2238
     10 C          21.4069  -19.0590   15.2518 C.ar    1  UNL1        0.1418
     11 C          20.5213  -18.9909   16.3190 C.ar    1  UNL1        0.0372
     12 C          20.1494  -20.1398   16.9861 C.ar    1  UNL1        0.0077
     13 C          20.6712  -21.3712   16.5957 C.ar    1  UNL1        0.0524
     14 C          21.5630  -21.4392   15.5208 C.ar    1  UNL1        0.1431
     15 C          21.9267  -20.2818   14.8537 C.ar    1  UNL1        0.0738
     16 C          21.9081  -18.0140   13.1759 C.3     1  UNL1        0.2525
     17 O          21.7652  -17.9244   14.5950 O.3     1  UNL1       -0.4713
     18 O          22.0709  -22.6379   15.1317 O.3     1  UNL1       -0.4713
     19 C          22.5316  -22.7403   13.7829 C.3     1  UNL1        0.2525
     20 C          15.7868  -26.4418   17.0847 C.3     1  UNL1        0.1502
     21 S          15.4310  -26.2681   15.3185 S.3     1  UNL1       -0.0658
     22 C          13.7901  -26.9085   15.2725 C.ar    1  UNL1        0.1916
     23 N          13.3314  -27.3915   14.1327 N.ar    1  UNL1       -0.2211
     24 C          12.0894  -27.8920   14.0586 C.ar    1  UNL1        0.0861
     25 C          11.5722  -28.4168   12.8663 C.ar    1  UNL1        0.0193
     26 C          10.3007  -28.9083   12.8427 C.ar    1  UNL1        0.0015
     27 C           9.5068  -28.8980   13.9858 C.ar    1  UNL1        0.0002
     28 C           9.9793  -28.3946   15.1625 C.ar    1  UNL1        0.0043
     29 C          11.2796  -27.8823   15.2204 C.ar    1  UNL1        0.0491
     30 C          11.8236  -27.3463   16.4146 C.ar    1  UNL1        0.1320
     31 N          13.0633  -26.8802   16.3867 N.ar    1  UNL1       -0.2064
     32 N          11.0816  -27.3113   17.5757 N.pl3   1  UNL1       -0.3196
     33 H          10.0985  -27.3399   17.5326 H       1  UNL1        0.1481
     34 C          11.7558  -27.2315   18.8739 C.3     1  UNL1        0.0705
     35 C          11.2962  -28.1960   19.9691 C.3     1  UNL1        0.0212
     36 C          10.9439  -26.7092   20.0608 C.3     1  UNL1        0.0212
@<TRIPOS>BOND
     1    16    17    1
     2    17    10    1
     3    10    15   ar
     4    10    11   ar
     5    11    12   ar
     6    12    13   ar
     7    13    14   ar
     8    13     5    1
     9    14    15   ar
    10    14    18    1
    11    18    19    1
    12     5     9   ar
    13     5     6   ar
    14     6     7   ar
    15     7     8   ar
    16     8     9   ar
    17     8     1    1
    18     1     2   am
    19     2     3    2
    20     2    20    1
    21    20    21    1
    22    21    22    1
    23    22    31   ar
    24    22    23   ar
    25    23    24   ar
    26    24    29   ar
    27    24    25   ar
    28    25    26   ar
    29    26    27   ar
    30    27    28   ar
    31    28    29   ar
    32    29    30   ar
    33    30    31   ar
    34    30    32    1
    35    32    34    1
    36    34    36    1
    37    34    35    1
    38    35    36    1
    39     1     4    1
    40    32    33    1
#	Name:			ZINC31784423
#	Creating user name:	trannguyen
#	Creation time:		Wed Dec  7 14:36:19 2022


#	Modifying user name:	trannguyen
#	Modification time:	Wed Dec  7 14:36:19 2022

@<TRIPOS>MOLECULE
ZINC31784423
 36 40 0 0 0
SMALL
GASTEIGER

@<TRIPOS>ATOM
      1 N          21.3130  -27.4975   15.1029 N.am    1  UNL1       -0.2634
      2 C          20.6392  -28.3914   14.3524 C.2     1  UNL1        0.2390
      3 O          19.5082  -28.1476   13.9885 O.2     1  UNL1       -0.2738
      4 H          22.2310  -27.6954   15.3983 H       1  UNL1        0.1568
      5 C          20.2418  -24.0403   15.4346 C.ar    1  UNL1        0.0928
      6 C          19.3346  -24.2163   16.4422 C.ar    1  UNL1        0.0573
      7 S          19.4671  -25.9803   16.7028 S.2     1  UNL1       -0.0508
      8 C          20.7120  -26.2966   15.4598 C.ar    1  UNL1        0.1655
      9 N          20.9092  -25.0862   14.9711 N.ar    1  UNL1       -0.2238
     10 C          21.5465  -20.5386   14.9933 C.ar    1  UNL1        0.1390
     11 C          20.9209  -20.1622   13.8129 C.ar    1  UNL1        0.0400
     12 C          20.0847  -21.0452   13.1558 C.ar    1  UNL1        0.0401
     13 C          19.8577  -22.3073   13.6786 C.ar    1  UNL1        0.1403
     14 C          20.4807  -22.6898   14.8702 C.ar    1  UNL1        0.0552
     15 C          21.3268  -21.7980   15.5252 C.ar    1  UNL1        0.0414
     16 C          21.9072  -18.3240   15.7817 C.3     1  UNL1        0.2525
     17 O          22.3723  -19.6669   15.6315 O.3     1  UNL1       -0.4714
     18 O          19.0303  -23.1727   13.0345 O.3     1  UNL1       -0.4714
     19 C          17.6390  -22.8471   13.0153 C.3     1  UNL1        0.2525
     20 C          21.2909  -29.6939   13.9654 C.3     1  UNL1        0.1502
     21 S          21.0146  -30.0070   12.2042 S.3     1  UNL1       -0.0658
     22 C          22.2382  -28.9466   11.5092 C.ar    1  UNL1        0.1916
     23 N          22.6279  -29.1602   10.2661 N.ar    1  UNL1       -0.2211
     24 C          23.5536  -28.3719    9.7002 C.ar    1  UNL1        0.0861
     25 C          23.9868  -28.5672    8.3815 C.ar    1  UNL1        0.0193
     26 C          24.9351  -27.7411    7.8552 C.ar    1  UNL1        0.0015
     27 C          25.4802  -26.7045    8.6071 C.ar    1  UNL1        0.0002
     28 C          25.0809  -26.4869    9.8933 C.ar    1  UNL1        0.0043
     29 C          24.1100  -27.3167   10.4635 C.ar    1  UNL1        0.0491
     30 C          23.6568  -27.1385   11.7947 C.ar    1  UNL1        0.1320
     31 N          22.7347  -27.9675   12.2610 N.ar    1  UNL1       -0.2064
     32 N          24.1626  -26.1280   12.5840 N.pl3   1  UNL1       -0.3196
     33 H          24.8915  -26.3167   13.2183 H       1  UNL1        0.1481
     34 C          23.6154  -24.7730   12.4791 C.3     1  UNL1        0.0705
     35 C          24.6070  -23.6233   12.2901 C.3     1  UNL1        0.0212
     36 C          23.8945  -23.8072   13.6324 C.3     1  UNL1        0.0212
@<TRIPOS>BOND
     1    16    17    1
     2    17    10    1
     3    10    15   ar
     4    10    11   ar
     5    11    12   ar
     6    12    13   ar
     7    13    14   ar
     8    13    18    1
     9    14    15   ar
    10    14     5    1
    11     5     9   ar
    12     5     6   ar
    13     6     7   ar
    14     7     8   ar
    15     8     9   ar
    16     8     1    1
    17     1     2   am
    18     2     3    2
    19     2    20    1
    20    20    21    1
    21    21    22    1
    22    22    31   ar
    23    22    23   ar
    24    23    24   ar
    25    24    29   ar
    26    24    25   ar
    27    25    26   ar
    28    26    27   ar
    29    27    28   ar
    30    28    29   ar
    31    29    30   ar
    32    30    31   ar
    33    30    32    1
    34    32    34    1
    35    34    36    1
    36    34    35    1
    37    35    36    1
    38    18    19    1
    39     1     4    1
    40    32    33    1
#	Name:			ZINC31841763
#	Creating user name:	trannguyen
#	Creation time:		Wed Dec  7 14:36:20 2022


#	Modifying user name:	trannguyen
#	Modification time:	Wed Dec  7 14:36:20 2022

@<TRIPOS>MOLECULE
ZINC31841763
 42 46 0 0 0
SMALL
GASTEIGER

@<TRIPOS>ATOM
      1 N          22.1361  -26.0065   14.8603 N.2     1  UNL1       -0.1877
      2 C          22.1303  -25.2508   13.8270 C.2     1  UNL1        0.0606
      3 C          20.6630  -26.8979   16.5042 C.2     1  UNL1        0.2455
      4 O          21.3673  -26.4260   17.3717 O.2     1  UNL1       -0.2730
      5 N          20.9864  -26.7281   15.2069 N.am    1  UNL1       -0.2062
      6 H          20.4148  -27.1112   14.5028 H       1  UNL1        0.1772
      7 C          19.4262  -27.6741   16.8771 C.3     1  UNL1        0.1131
      8 C          15.9604  -25.5400   15.5805 C.ar    1  UNL1       -0.0000
      9 C          16.3421  -26.6987   14.9303 C.ar    1  UNL1       -0.0003
     10 C          17.4638  -27.3891   15.3497 C.ar    1  UNL1       -0.0038
     11 C          18.2036  -26.9211   16.4197 C.ar    1  UNL1       -0.0130
     12 C          17.8187  -25.7655   17.0733 C.ar    1  UNL1       -0.0038
     13 C          16.7000  -25.0722   16.6506 C.ar    1  UNL1       -0.0003
     14 C          23.4067  -24.5968   13.3646 C.3     1  UNL1        0.1037
     15 C          24.3500  -25.6614   12.8007 C.3     1  UNL1        0.1114
     16 N          23.9282  -26.0180   11.4396 N.4     1  UNL1        0.2761
     17 C          25.0360  -25.8204   10.4701 C.3     1  UNL1        0.1055
     18 C          24.6178  -26.7053    9.2689 C.3     1  UNL1        0.0670
     19 C          23.9792  -27.9363    9.9522 C.3     1  UNL1        0.0670
     20 C          23.5681  -27.4500   11.3543 C.3     1  UNL1        0.1055
     21 H          23.1313  -25.4200   11.2213 H       1  UNL1        0.2067
     22 C          20.8468  -25.0151   13.0731 C.3     1  UNL1        0.0521
     23 C          19.8452  -24.3003   13.9823 C.3     1  UNL1        0.0596
     24 C          20.3841  -22.9428   14.3540 C.ar    1  UNL1        0.0924
     25 C          20.5728  -21.9579   13.3617 C.ar    1  UNL1        0.2010
     26 O          20.3075  -22.1776   12.1911 O.2     1  UNL1       -0.2866
     27 C          21.1001  -20.6486   13.7973 C.ar    1  UNL1        0.0735
     28 C          21.3151  -19.6145   12.8885 C.ar    1  UNL1        0.0062
     29 C          21.8141  -18.4100   13.3349 C.ar    1  UNL1        0.0003
     30 C          22.1007  -18.2268   14.6795 C.ar    1  UNL1        0.0031
     31 C          21.8916  -19.2427   15.5880 C.ar    1  UNL1        0.0377
     32 C          21.3896  -20.4646   15.1577 C.ar    1  UNL1        0.1516
     33 O          21.1786  -21.4729   16.0296 O.2     1  UNL1       -0.4239
     34 C          20.6965  -22.6617   15.6460 C.ar    1  UNL1        0.2924
     35 O          20.5141  -23.6190   16.5798 O.3     1  UNL1       -0.4797
     36 H          20.1778  -24.4576   16.3316 H       1  UNL1        0.2953
     37 C          18.5344  -24.1389   13.2566 C.ar    1  UNL1       -0.0177
     38 C          17.6330  -23.1733   13.6641 C.ar    1  UNL1       -0.0039
     39 C          16.4325  -23.0225   12.9956 C.ar    1  UNL1       -0.0003
     40 C          16.1292  -23.8435   11.9257 C.ar    1  UNL1       -0.0000
     41 C          17.0285  -24.8124   11.5213 C.ar    1  UNL1       -0.0003
     42 C          18.2309  -24.9603   12.1870 C.ar    1  UNL1       -0.0039
@<TRIPOS>UNITY_ATOM_ATTR
16 1
charge 1
@<TRIPOS>BOND
     1     8    13   ar
     2     8     9   ar
     3     9    10   ar
     4    10    11   ar
     5    11    12   ar
     6    11     7    1
     7    12    13   ar
     8     7     3    1
     9     3     4    2
    10     3     5   am
    11     5     1    1
    12     1     2    2
    13     2    14    1
    14     2    22    1
    15    14    15    1
    16    15    16    1
    17    16    20    1
    18    16    17    1
    19    17    18    1
    20    18    19    1
    21    19    20    1
    22    22    23    1
    23    23    37    1
    24    23    24    1
    25    37    42   ar
    26    37    38   ar
    27    38    39   ar
    28    39    40   ar
    29    40    41   ar
    30    41    42   ar
    31    24    34   ar
    32    24    25   ar
    33    25    26    2
    34    25    27   ar
    35    27    32   ar
    36    27    28   ar
    37    28    29   ar
    38    29    30   ar
    39    30    31   ar
    40    31    32   ar
    41    32    33   ar
    42    33    34   ar
    43    34    35    1
    44     5     6    1
    45    16    21    1
    46    35    36    1
#	Name:			ZINC31842125
#	Creating user name:	trannguyen
#	Creation time:		Wed Dec  7 14:36:20 2022


#	Modifying user name:	trannguyen
#	Modification time:	Wed Dec  7 14:36:20 2022

@<TRIPOS>MOLECULE
ZINC31842125
 35 37 0 0 0
SMALL
GASTEIGER

@<TRIPOS>ATOM
      1 C          18.9175  -24.5429   13.3282 C.3     1  UNL1        0.1208
      2 C          19.4566  -23.2336   12.8124 C.2     1  UNL1        0.1575
      3 O          18.9236  -22.6880   11.8762 O.2     1  UNL1       -0.2956
      4 C          20.6607  -22.6049   13.4651 C.3     1  UNL1        0.0626
      5 C          22.6771  -24.0526   13.7496 C.3     1  UNL1        0.0005
      6 C          21.3439  -23.6314   14.3710 C.3     1  UNL1        0.0077
      7 C          20.2183  -21.4019   14.3005 C.3     1  UNL1        0.0388
      8 C          21.4459  -20.5853   14.7088 C.ar    1  UNL1        0.0365
      9 C          21.4040  -20.3899   16.2126 C.ar    1  UNL1       -0.0021
     10 O          21.3795  -21.3368   16.9692 O.co2   1  UNL1       -0.8598
     11 N          21.3977  -19.1277   16.6809 N.ar    1  UNL1       -0.2605
     12 C          21.4211  -18.0698   15.8623 C.ar    1  UNL1        0.0605
     13 O          21.4104  -16.9656   16.3686 O.co2   1  UNL1       -0.8476
     14 N          21.4559  -18.1393   14.5266 N.ar    1  UNL1       -0.3189
     15 C          21.4707  -19.3200   13.8723 C.ar    1  UNL1        0.2541
     16 O          21.5023  -19.3674   12.6614 O.2     1  UNL1       -0.2675
     17 H          21.4711  -17.3043   14.0053 H       1  UNL1        0.1692
     18 C          19.0504  -25.6124   12.2422 C.3     1  UNL1        0.0152
     19 C          19.8410  -26.8014   12.7914 C.3     1  UNL1        0.0009
     20 C          17.4654  -24.3783   13.6962 C.2     1  UNL1        0.1971
     21 O          16.7124  -23.7929   12.9467 O.2     1  UNL1       -0.2893
     22 C          16.9622  -24.9262   14.9615 C.2     1  UNL1        0.1184
     23 C          17.7396  -25.7296   15.6997 C.2     1  UNL1        0.0237
     24 N          15.6692  -24.6092   15.3971 N.2     1  UNL1       -0.2196
     25 C          14.6008  -25.3982   15.0200 C.ar    1  UNL1        0.1722
     26 N          14.5833  -26.4245   14.2000 N.ar    1  UNL1       -0.3329
     27 C          13.4536  -27.1106   13.9207 C.ar    1  UNL1        0.0641
     28 C          13.2985  -28.2247   13.0639 C.ar    1  UNL1        0.0172
     29 C          12.0709  -28.8090   12.8903 C.ar    1  UNL1       -0.0027
     30 C          10.9430  -28.3335   13.5433 C.ar    1  UNL1       -0.0213
     31 C          11.0584  -27.2452   14.3889 C.ar    1  UNL1        0.0038
     32 C          12.2836  -26.6538   14.5687 C.ar    1  UNL1        0.0475
     33 S          12.8897  -25.2835   15.5234 S.2     1  UNL1       -0.0491
     34 C           9.6058  -28.9957   13.3329 C.3     1  UNL1        0.0310
     35 H          15.4252  -26.7042   13.7730 H       1  UNL1        0.1679
@<TRIPOS>UNITY_ATOM_ATTR
10 1
charge -1
13 1
charge -1
@<TRIPOS>BOND
     1     5     6    1
     2     6     4    1
     3     4     7    1
     4     4     2    1
     5     7     8    1
     6     8    15   ar
     7     8     9   ar
     8     9    10    1
     9     9    11   ar
    10    11    12   ar
    11    12    13    1
    12    12    14   ar
    13    14    15   ar
    14    15    16    2
    15     2     3    2
    16     2     1    1
    17     1    18    1
    18     1    20    1
    19    18    19    1
    20    20    21    2
    21    20    22    1
    22    22    23    2
    23    22    24    1
    24    24    25    2
    25    25    33   ar
    26    25    26   ar
    27    26    27   ar
    28    27    32   ar
    29    27    28   ar
    30    28    29   ar
    31    29    30   ar
    32    30    31   ar
    33    30    34    1
    34    31    32   ar
    35    32    33   ar
    36    14    17    1
    37    26    35    1
#	Name:			ZINC31905721
#	Creating user name:	trannguyen
#	Creation time:		Wed Dec  7 14:36:19 2022


#	Modifying user name:	trannguyen
#	Modification time:	Wed Dec  7 14:36:19 2022

@<TRIPOS>MOLECULE
ZINC31905721
 37 40 0 0 0
SMALL
GASTEIGER

@<TRIPOS>ATOM
      1 C          19.8974  -25.0313   14.3559 C.ar    0  UNK0        0.0494
      2 C          19.5794  -25.4866   13.0825 C.ar    0  UNK0        0.0143
      3 C          20.2656  -26.5565   12.5422 C.ar    0  UNK0       -0.0025
      4 C          21.2603  -27.1815   13.2717 C.ar    0  UNK0       -0.0130
      5 C          21.5755  -26.7345   14.5418 C.ar    0  UNK0       -0.0025
      6 C          20.8972  -25.6615   15.0860 C.ar    0  UNK0        0.0143
      7 N          19.2091  -23.9453   14.9034 N.pl3   0  UNK0       -0.2967
      8 H          18.2627  -24.0399   15.1577 H       0  UNK0        0.1537
      9 C          22.0498  -18.3666   14.6178 C.ar    0  UNK0        0.0016
     10 C          21.6686  -18.7697   13.3404 C.ar    0  UNK0        0.0016
     11 C          21.0296  -19.9561   13.1430 C.ar    0  UNK0        0.0207
     12 C          20.7479  -20.7896   14.2385 C.ar    0  UNK0        0.1003
     13 C          21.1355  -20.3802   15.5377 C.ar    0  UNK0        0.0990
     14 C          21.7935  -19.1481   15.7027 C.ar    0  UNK0        0.0206
     15 N          20.8736  -21.1549   16.5974 N.ar    0  UNK0       -0.2405
     16 C          20.2584  -22.3143   16.4310 C.ar    0  UNK0        0.1188
     17 C          19.8584  -22.7356   15.0885 C.ar    0  UNK0        0.1504
     18 N          20.1189  -21.9597   14.0558 N.ar    0  UNK0       -0.2275
     19 C          19.9723  -23.1743   17.5931 C.ar    0  UNK0        0.0499
     20 C          18.7891  -23.3563   18.2635 C.ar    0  UNK0        0.0086
     21 C          18.7604  -24.2255   19.3290 C.ar    0  UNK0        0.0075
     22 C          19.9027  -24.8670   19.6920 C.ar    0  UNK0        0.0355
     23 S          21.0748  -24.2512   18.4944 S.2     0  UNK0       -0.0848
     24 C          22.0022  -28.3529   12.6813 C.3     0  UNK0        0.1113
     25 C          22.9548  -27.8619   11.6219 C.2     0  UNK0        0.2271
     26 O          22.7174  -28.0675   10.4505 O.2     0  UNK0       -0.2747
     27 N          24.0708  -27.1942   11.9762 N.am    1  GLU1       -0.3008
     28 H          24.2636  -27.0272   12.9271 H       1  GLU1        0.1497
     29 CA         24.9968  -26.7169   10.9463 C.3     1  GLU1        0.1084
     30 C          26.1858  -27.6399   10.8730 C.2     1  GLU1        0.0682
     31 O          26.6052  -28.1658   11.8768 O.co2   1  GLU1       -0.5475
     32 OXT        26.7789  -27.8779    9.6927 O.co2   1  GLU1       -0.5475
     33 CB         25.4684  -25.3049   11.2994 C.3     1  GLU1        0.0312
     34 CG         24.5154  -24.6908   12.3266 C.3     1  GLU1        0.0438
     35 CD         24.4766  -23.1953   12.1449 C.2     1  GLU1        0.0504
     36 OE1        23.4849  -22.5753   12.4484 O.co2   1  GLU1       -0.5492
     37 OE2        25.5437  -22.5520   11.6456 O.co2   1  GLU1       -0.5492
@<TRIPOS>UNITY_ATOM_ATTR
32 1
charge -1
37 1
charge -1
@<TRIPOS>BOND
     1     9    14   ar
     2     9    10   ar
     3    10    11   ar
     4    11    12   ar
     5    12    18   ar
     6    12    13   ar
     7    13    14   ar
     8    13    15   ar
     9    15    16   ar
    10    16    17   ar
    11    16    19    1
    12    17    18   ar
    13    17     7    1
    14     7     1    1
    15     1     6   ar
    16     1     2   ar
    17     2     3   ar
    18     3     4   ar
    19     4     5   ar
    20     4    24    1
    21     5     6   ar
    22    24    25    1
    23    25    26    2
    24    25    27   am
    25    27    29    1
    26    29    33    1
    27    29    30    1
    28    33    34    1
    29    34    35    1
    30    35    36   ar
    31    35    37   ar
    32    30    31   ar
    33    30    32   ar
    34    19    23   ar
    35    19    20   ar
    36    20    21   ar
    37    21    22   ar
    38    22    23   ar
    39     7     8    1
    40    27    28    1
#	Name:			ZINC31969670
#	Creating user name:	trannguyen
#	Creation time:		Wed Dec  7 14:36:19 2022


#	Modifying user name:	trannguyen
#	Modification time:	Wed Dec  7 14:36:19 2022

@<TRIPOS>MOLECULE
ZINC31969670
 31 33 0 0 0
SMALL
GASTEIGER

@<TRIPOS>ATOM
      1 C          16.3312  -25.5497   14.6305 C.2     1  UNL1        0.1219
      2 C          17.1146  -25.6365   13.4967 C.2     1  UNL1        0.0160
      3 C          18.4232  -25.0893   13.4952 C.ar    1  UNL1        0.0136
      4 C          19.6727  -25.7796   13.8443 C.ar    1  UNL1        0.0139
      5 C          20.6571  -24.8769   13.7010 C.ar    1  UNL1        0.0372
      6 N          20.1219  -23.6887   13.2936 N.ar    1  UNL1       -0.3315
      7 C          18.7872  -23.7960   13.1584 C.ar    1  UNL1        0.0372
      8 C          17.8512  -22.6988   12.7209 C.3     1  UNL1        0.0500
      9 C          22.1208  -25.1349   13.9501 C.3     1  UNL1        0.0500
     10 C          20.8928  -22.4703   13.0342 C.3     1  UNL1        0.1348
     11 C          20.4877  -21.3874   14.0363 C.3     1  UNL1        0.1378
     12 C          20.6336  -19.9937   13.3887 C.3     1  UNL1        0.0341
     13 C          21.1975  -19.1435   14.5597 C.3     1  UNL1        0.0346
     14 C          22.0771  -20.1915   15.2869 C.3     1  UNL1        0.1422
     15 O          21.3565  -21.4290   15.1743 O.3     1  UNL1       -0.3543
     16 N          14.5832  -27.2524   14.6135 N.am    1  UNL1       -0.2800
     17 C          14.9178  -25.9473   14.5790 C.2     1  UNL1        0.2592
     18 O          14.0492  -25.0982   14.5052 O.2     1  UNL1       -0.2691
     19 H          15.2832  -27.9376   14.7129 H       1  UNL1        0.1552
     20 C           9.1394  -28.7978   14.1743 C.3     1  UNL1        0.0342
     21 C          10.5849  -28.3880   14.2922 C.ar    1  UNL1        0.0119
     22 C          11.3663  -28.2800   13.1574 C.ar    1  UNL1       -0.0000
     23 C          12.6914  -27.9043   13.2614 C.ar    1  UNL1        0.0142
     24 C          13.2418  -27.6334   14.5082 C.ar    1  UNL1        0.0494
     25 C          12.4600  -27.7468   15.6491 C.ar    1  UNL1        0.0252
     26 C          11.1292  -28.1190   15.5401 C.ar    1  UNL1        0.1319
     27 C          13.0552  -27.4603   17.0037 C.3     1  UNL1        0.0355
     28 O          10.3594  -28.2256   16.6549 O.3     1  UNL1       -0.4720
     29 C          10.3229  -29.5008   17.2987 C.3     1  UNL1        0.2524
     30 C          16.8980  -25.0778   15.8580 C.1     1  UNL1        0.1050
     31 N          17.3476  -24.7035   16.8317 N.1     1  UNL1       -0.1907
@<TRIPOS>BOND
     1    20    21    1
     2    21    26   ar
     3    21    22   ar
     4    22    23   ar
     5    23    24   ar
     6    24    25   ar
     7    24    16    1
     8    25    26   ar
     9    25    27    1
    10    26    28    1
    11    28    29    1
    12    16    17   am
    13    17    18    2
    14    17     1    1
    15     1     2    2
    16     1    30    1
    17     2     3    1
    18     3     7   ar
    19     3     4   ar
    20     4     5   ar
    21     5     6   ar
    22     5     9    1
    23     6     7   ar
    24     6    10    1
    25     7     8    1
    26    10    11    1
    27    11    15    1
    28    11    12    1
    29    12    13    1
    30    13    14    1
    31    14    15    1
    32    30    31    3
    33    16    19    1
