#	Name:			CHEMBL1006
#	Creating user name:	trannguyen
#	Creation time:		Wed Dec  7 14:36:25 2022


#	Modifying user name:	trannguyen
#	Modification time:	Wed Dec  7 14:36:25 2022

@<TRIPOS>MOLECULE
CHEMBL1006
 17 16 0 0 0
SMALL
GASTEIGER

@<TRIPOS>ATOM
      1 C           1.3401   30.6792    7.7392 C.3     1  UNL1        0.0809
      2 N           1.5403   32.0806    7.3339 N.3     1  UNL1       -0.2967
      3 H           0.8882   32.3171    6.5862 H       1  UNL1        0.1233
      4 C           2.9166   32.2900    6.8665 C.3     1  UNL1        0.0700
      5 C           3.0983   31.9206    5.3866 C.3     1  UNL1        0.0339
      6 N           1.3657   33.4885    4.5808 N.3     1  UNL1       -0.3211
      7 C           2.7594   33.0653    4.4296 C.3     1  UNL1        0.0666
      8 H           1.2037   34.3032    3.9880 H       1  UNL1        0.1189
      9 H           1.2014   33.8033    5.5362 H       1  UNL1        0.1189
     10 C           1.2066   30.5530    9.2618 C.3     1  UNL1        0.0859
     11 S           2.5912   29.6361    9.9956 S.3     1  UNL1       -0.0297
     12 P           1.7475   28.0542   11.0160 P.3     1  UNL1        0.3869
     13 O           2.0428   28.0376   12.4866 O.2     1  UNL1       -0.2462
     14 O           0.1648   27.9726   10.7823 O.3     1  UNL1       -0.3163
     15 O           2.1994   26.6547   10.3847 O.3     1  UNL1       -0.3163
     16 H          -0.2752   27.4178   11.4509 H       1  UNL1        0.2205
     17 H           2.1178   25.9275   11.0283 H       1  UNL1        0.2205
@<TRIPOS>BOND
     1     6     7    1
     2     6     8    1
     3     6     9    1
     4     7     5    1
     5     5     4    1
     6     4     2    1
     7     2     1    1
     8     2     3    1
     9     1    10    1
    10    10    11    1
    11    11    12    1
    12    12    13    2
    13    12    14    1
    14    12    15    1
    15    14    16    1
    16    15    17    1



#	Name:			CHEMBL1020
#	Creating user name:	trannguyen
#	Creation time:		Wed Dec  7 14:36:25 2022


#	Modifying user name:	trannguyen
#	Modification time:	Wed Dec  7 14:36:25 2022

@<TRIPOS>MOLECULE
CHEMBL1020
 20 21 0 0 0
SMALL
GASTEIGER

@<TRIPOS>ATOM
      1 C           3.1236   31.5336    8.3442 C.ar    1  UNL1        0.0992
      2 C           1.8277   31.0437    8.4030 C.ar    1  UNL1        0.0216
      3 C           1.8071   29.9356    9.2726 C.ar    1  UNL1        0.0149
      4 C           3.1020   29.6921    9.6919 C.ar    1  UNL1        0.0484
      5 N           3.8825   30.7247    9.1918 N.ar    1  UNL1       -0.3256
      6 C           5.2719   30.9897    9.5251 C.3     1  UNL1        0.1302
      7 C           3.6540   32.6382    7.5391 C.2     1  UNL1        0.2112
      8 O           3.4494   33.8161    7.8293 O.2     1  UNL1       -0.2850
      9 C           6.8048   31.4187    2.7951 C.3     1  UNL1        0.0310
     10 C           5.9978   31.7281    4.0229 C.ar    1  UNL1       -0.0218
     11 C           4.6123   31.5317    4.0329 C.ar    1  UNL1       -0.0042
     12 C           3.8584   31.8547    5.1690 C.ar    1  UNL1        0.0029
     13 C           4.4801   32.3735    6.3158 C.ar    1  UNL1        0.0404
     14 C           5.8674   32.5584    6.3062 C.ar    1  UNL1        0.0029
     15 C           6.6144   32.2631    5.1597 C.ar    1  UNL1       -0.0042
     16 C           3.5441   28.5722   10.5951 C.3     1  UNL1        0.1529
     17 C           2.4431   27.6562   11.0731 C.2     1  UNL1        0.3198
     18 O           1.7695   27.8663   12.0817 O.2     1  UNL1       -0.2499
     19 O           2.2294   26.5782   10.2905 O.3     1  UNL1       -0.4799
     20 H           2.8429   26.5227    9.5307 H       1  UNL1        0.2951
@<TRIPOS>BOND
     1     9    10    1
     2    10    11   ar
     3    10    15   ar
     4    11    12   ar
     5    12    13   ar
     6    13     7    1
     7    13    14   ar
     8     7     8    2
     9     7     1    1
    10     1     2   ar
    11     1     5   ar
    12     2     3   ar
    13     3     4   ar
    14     4    16    1
    15     4     5   ar
    16    16    17    1
    17    17    18    2
    18    17    19    1
    19    19    20    1
    20     5     6    1
    21    14    15   ar



#	Name:			CHEMBL102199
#	Creating user name:	trannguyen
#	Creation time:		Wed Dec  7 14:36:25 2022


#	Modifying user name:	trannguyen
#	Modification time:	Wed Dec  7 14:36:25 2022

@<TRIPOS>MOLECULE
CHEMBL102199
 39 42 0 0 0
SMALL
GASTEIGER

@<TRIPOS>ATOM
      1 C           6.7936   35.0679   10.8189 C.3     1  UNL1        0.0342
      2 C           6.4157   33.6703   10.3617 C.ar    1  UNL1        0.0118
      3 C           5.0052   33.4115   10.2075 C.ar    1  UNL1        0.1312
      4 C           4.6784   32.3902    9.2828 C.ar    1  UNL1        0.0193
      5 C           5.7765   31.7292    8.5716 C.ar    1  UNL1       -0.0007
      6 C           7.1474   31.9109    8.8203 C.ar    1  UNL1       -0.0004
      7 C           8.1550   31.1950    8.1057 C.ar    1  UNL1       -0.0000
      8 C           9.5106   31.3474    8.3978 C.ar    1  UNL1       -0.0000
      9 C           9.8722   32.1960    9.4293 C.ar    1  UNL1       -0.0000
     10 C           8.8836   32.9436   10.0956 C.ar    1  UNL1       -0.0002
     11 C           7.4898   32.8506    9.7936 C.ar    1  UNL1       -0.0011
     12 O           4.2061   34.4486   10.7025 O.3     1  UNL1       -0.4735
     13 C           2.8461   34.8028   10.2986 C.3     1  UNL1        0.2344
     14 C           2.5675   36.2976    9.7643 C.3     1  UNL1        0.1564
     15 O           2.5820   36.2719    8.3270 O.3     1  UNL1       -0.3806
     16 H           1.7238   36.6151    7.9934 H       1  UNL1        0.2105
     17 C           1.2426   37.0229   10.3170 C.3     1  UNL1        0.0627
     18 C           0.9865   38.5033    9.8707 C.3     1  UNL1        0.1186
     19 O           0.4968   38.5450    8.5268 O.3     1  UNL1       -0.3840
     20 H           0.0447   39.4036    8.4144 H       1  UNL1        0.2104
     21 C           0.1132   39.3855   10.7985 C.3     1  UNL1        0.0710
     22 C          -0.2895   40.8373   10.5234 C.2     1  UNL1        0.0528
     23 O          -1.3175   41.2402   11.2351 O.co2   1  UNL1       -0.5491
     24 O           0.3565   41.4535    9.6894 O.co2   1  UNL1       -0.5491
     25 C           3.3005   31.8103    8.8555 C.3     1  UNL1        0.0696
     26 C           2.9853   32.0635    7.3382 C.ar    1  UNL1       -0.0141
     27 C           3.3130   33.2717    6.6791 C.ar    1  UNL1       -0.0013
     28 C           3.1215   33.4480    5.3126 C.ar    1  UNL1        0.0293
     29 C           2.5607   32.4196    4.5825 C.ar    1  UNL1        0.1401
     30 F           2.4428   32.5534    3.2549 F       1  UNL1       -0.2042
     31 C           2.1521   31.2445    5.1950 C.ar    1  UNL1        0.0293
     32 C           2.3314   31.0810    6.5713 C.ar    1  UNL1       -0.0013
     33 C           2.9314   30.4073    9.3568 C.ar    1  UNL1       -0.0141
     34 C           3.9161   29.4330    9.6185 C.ar    1  UNL1       -0.0013
     35 C           3.5840   28.2420   10.2872 C.ar    1  UNL1        0.0293
     36 C           2.2649   27.9793   10.6238 C.ar    1  UNL1        0.1401
     37 F           1.9721   26.9244   11.3955 F       1  UNL1       -0.2042
     38 C           1.2616   28.8670   10.2705 C.ar    1  UNL1        0.0293
     39 C           1.5915   30.0781    9.6468 C.ar    1  UNL1       -0.0013
@<TRIPOS>UNITY_ATOM_ATTR
23 1
charge -1
@<TRIPOS>BOND
     1     1     2    1
     2     2     3   ar
     3     2    11   ar
     4     3    12    1
     5     3     4   ar
     6    12    13    1
     7    13    14    1
     8    14    15    1
     9    14    17    1
    10    15    16    1
    11    17    18    1
    12    18    19    1
    13    18    21    1
    14    19    20    1
    15    21    22    1
    16    22    23   ar
    17    22    24   ar
    18     4    25    1
    19     4     5   ar
    20    25    26    1
    21    25    33    1
    22    26    27   ar
    23    26    32   ar
    24    27    28   ar
    25    28    29   ar
    26    29    30    1
    27    29    31   ar
    28    31    32   ar
    29    33    34   ar
    30    33    39   ar
    31    34    35   ar
    32    35    36   ar
    33    36    37    1
    34    36    38   ar
    35    38    39   ar
    36     5     6   ar
    37     6     7   ar
    38     6    11   ar
    39     7     8   ar
    40     8     9   ar
    41     9    10   ar
    42    10    11   ar



#	Name:			CHEMBL104
#	Creating user name:	trannguyen
#	Creation time:		Wed Dec  7 14:36:25 2022


#	Modifying user name:	trannguyen
#	Modification time:	Wed Dec  7 14:36:25 2022

@<TRIPOS>MOLECULE
CHEMBL104
 25 28 0 0 0
SMALL
GASTEIGER

@<TRIPOS>ATOM
      1 C           3.7488   32.5416    8.1614 C.3     1  UNL1        0.1275
      2 CL          0.7054   31.4640    8.7137 Cl      1  UNL1       -0.0825
      3 C           2.1681   30.6662    9.1976 C.ar    1  UNL1        0.0560
      4 C           1.9783   29.4679    9.9106 C.ar    1  UNL1        0.0112
      5 C           3.0627   28.7568   10.4106 C.ar    1  UNL1        0.0008
      6 C           4.3457   29.2253   10.1752 C.ar    1  UNL1       -0.0002
      7 C           4.5465   30.3977    9.4346 C.ar    1  UNL1       -0.0011
      8 C           3.4711   31.1661    8.9213 C.ar    1  UNL1        0.0146
      9 C           5.3190   32.8367    8.0730 C.ar    1  UNL1        0.0040
     10 C           6.0698   32.4450    6.9410 C.ar    1  UNL1       -0.0019
     11 C           7.4458   32.6974    6.8529 C.ar    1  UNL1       -0.0002
     12 C           8.1174   33.3220    7.8988 C.ar    1  UNL1       -0.0000
     13 C           7.4189   33.6777    9.0432 C.ar    1  UNL1       -0.0002
     14 C           6.0448   33.4335    9.1311 C.ar    1  UNL1       -0.0019
     15 C           3.1506   32.5464    6.6792 C.ar    1  UNL1        0.0040
     16 C           3.0142   33.7503    5.9450 C.ar    1  UNL1       -0.0019
     17 C           2.4846   33.7808    4.6459 C.ar    1  UNL1       -0.0002
     18 C           2.1042   32.6030    4.0178 C.ar    1  UNL1       -0.0000
     19 C           2.2693   31.3973    4.6836 C.ar    1  UNL1       -0.0002
     20 C           2.8049   31.3700    5.9796 C.ar    1  UNL1       -0.0019
     21 N           3.1423   33.6464    8.9993 N.ar    1  UNL1       -0.3008
     22 C           3.0478   34.9947    8.7401 C.ar    1  UNL1        0.0987
     23 C           2.5660   35.5755    9.8927 C.ar    1  UNL1        0.1193
     24 N           2.3834   34.6458   10.8670 N.ar    1  UNL1       -0.2223
     25 C           2.7380   33.4995   10.3169 C.ar    1  UNL1        0.1792
@<TRIPOS>BOND
     1     2     3    1
     2     3     4   ar
     3     3     8   ar
     4     4     5   ar
     5     5     6   ar
     6     6     7   ar
     7     7     8   ar
     8     8     1    1
     9     1     9    1
    10     1    15    1
    11     1    21    1
    12     9    10   ar
    13     9    14   ar
    14    10    11   ar
    15    11    12   ar
    16    12    13   ar
    17    13    14   ar
    18    15    16   ar
    19    15    20   ar
    20    16    17   ar
    21    17    18   ar
    22    18    19   ar
    23    19    20   ar
    24    21    22   ar
    25    21    25   ar
    26    22    23   ar
    27    23    24   ar
    28    24    25   ar



#	Name:			CHEMBL1042
#	Creating user name:	trannguyen
#	Creation time:		Wed Dec  7 14:36:25 2022


#	Modifying user name:	trannguyen
#	Modification time:	Wed Dec  7 14:36:25 2022

@<TRIPOS>MOLECULE
CHEMBL1042
 29 31 0 0 0
SMALL
GASTEIGER

@<TRIPOS>ATOM
      1 C           6.0563   30.7046   10.6601 C.2     1  UNL1       -0.0088
      2 C           7.0405   31.2181    9.8974 C.2     1  UNL1       -0.0446
      3 C           7.5794   30.5327    8.6692 C.3     1  UNL1        0.0220
      4 C           7.5532   31.4629    7.4637 C.3     1  UNL1        0.0044
      5 C           7.8287   32.9425    7.7722 C.3     1  UNL1        0.0006
      6 C           8.5454   33.2234    9.1079 C.3     1  UNL1        0.0034
      7 C          10.0014   32.6986    9.0261 C.3     1  UNL1        0.0003
      8 C           7.7715   32.5028   10.2723 C.3     1  UNL1        0.0183
      9 C           6.8675   33.6030   10.8328 C.3     1  UNL1        0.0040
     10 C           7.7805   34.8104   10.8673 C.3     1  UNL1        0.0003
     11 C           8.6085   34.7417    9.5661 C.3     1  UNL1        0.0003
     12 C           3.5933   31.0894    8.4087 C.2     1  UNL1       -0.0049
     13 C           3.3075   30.3278    9.4698 C.2     1  UNL1       -0.0260
     14 C           2.0291   30.4469   10.2602 C.3     1  UNL1        0.0285
     15 C           1.2735   29.1147   10.2749 C.3     1  UNL1        0.0342
     16 C           2.1634   27.9475   10.7207 C.3     1  UNL1        0.1152
     17 O           2.4256   28.0354   12.1239 O.3     1  UNL1       -0.3841
     18 C           3.4971   27.9010    9.9506 C.3     1  UNL1        0.0552
     19 C           4.1844   29.2538    9.9302 C.2     1  UNL1       -0.0237
     20 C           5.4204   29.4231   10.4276 C.2     1  UNL1       -0.0051
     21 H           1.5711   28.0987   12.5828 H       1  UNL1        0.2103
     22 C           8.2867   35.9366    8.6117 C.3     1  UNL1        0.0000
     23 C           9.4515   36.4283    7.7416 C.3     1  UNL1        0.0000
     24 C           7.5718   37.1445    9.2609 C.3     1  UNL1        0.0000
     25 C           7.7862   38.4595    8.5077 C.3     1  UNL1        0.0000
     26 C           8.2546   39.5834    9.4386 C.3     1  UNL1        0.0000
     27 C           8.9427   39.0588   10.7147 C.3     1  UNL1        0.0000
     28 C          10.4587   38.9256   10.5490 C.3     1  UNL1        0.0000
     29 C           8.6379   39.9817   11.8968 C.3     1  UNL1        0.0000
@<TRIPOS>BOND
     1    12    13    2
     2    13    14    1
     3    13    19    1
     4    14    15    1
     5    15    16    1
     6    16    17    1
     7    16    18    1
     8    17    21    1
     9    18    19    1
    10    19    20    2
    11    20     1    1
    12     1     2    2
    13     2     3    1
    14     2     8    1
    15     3     4    1
    16     4     5    1
    17     5     6    1
    18     6     8    1
    19     6    11    1
    20     6     7    1
    21     8     9    1
    22     9    10    1
    23    10    11    1
    24    11    22    1
    25    22    24    1
    26    22    23    1
    27    24    25    1
    28    25    26    1
    29    26    27    1
    30    27    28    1
    31    27    29    1



#	Name:			CHEMBL1046
#	Creating user name:	trannguyen
#	Creation time:		Wed Dec  7 14:36:25 2022


#	Modifying user name:	trannguyen
#	Modification time:	Wed Dec  7 14:36:25 2022

@<TRIPOS>MOLECULE
CHEMBL1046
 12 11 0 0 0
SMALL
GASTEIGER

@<TRIPOS>ATOM
      1 C           3.7224   30.7790    9.2700 C.3     1  UNL1        0.0020
      2 C           2.4115   31.0325    8.5121 C.3     1  UNL1        0.0169
      3 N           0.2064   32.2190    8.5770 N.3     1  UNL1       -0.3211
      4 C           1.5672   32.1701    9.0954 C.3     1  UNL1        0.0651
      5 H           0.1775   32.7706    7.7209 H       1  UNL1        0.1189
      6 H          -0.1195   31.2854    8.3320 H       1  UNL1        0.1189
      7 C           3.6891   29.4300    9.9852 C.3     1  UNL1        0.0117
      8 C           2.2928   28.8157   10.0726 C.3     1  UNL1        0.1094
      9 C           2.1543   27.7067   11.0953 C.2     1  UNL1        0.3138
     10 O           1.9914   27.9420   12.2923 O.2     1  UNL1       -0.2503
     11 O           2.2210   26.4404   10.6479 O.3     1  UNL1       -0.4802
     12 H           2.3608   26.3209    9.6853 H       1  UNL1        0.2951
@<TRIPOS>BOND
     1     3     4    1
     2     3     5    1
     3     3     6    1
     4     4     2    1
     5     2     1    1
     6     1     7    1
     7     7     8    1
     8     8     9    1
     9     9    10    2
    10     9    11    1
    11    11    12    1



#	Name:			CHEMBL105
#	Creating user name:	trannguyen
#	Creation time:		Wed Dec  7 14:36:25 2022


#	Modifying user name:	trannguyen
#	Modification time:	Wed Dec  7 14:36:25 2022

@<TRIPOS>MOLECULE
CHEMBL105
 29 32 0 0 0
SMALL
GASTEIGER

@<TRIPOS>ATOM
      1 C           3.1767   32.0174    9.2257 C.3     1  UNL1        0.1751
      2 C           2.0549   31.6744    8.1805 C.3     1  UNL1        0.1146
      3 C           2.7160   32.0809    6.8855 C.2     1  UNL1        0.0418
      4 C           3.9621   32.5131    7.0771 C.2     1  UNL1        0.0879
      5 C           4.8992   32.6772    5.9391 C.2     1  UNL1        0.2059
      6 O           5.9899   33.2255    6.0467 O.2     1  UNL1       -0.2856
      7 C           4.4690   32.0200    4.6640 C.2     1  UNL1        0.0343
      8 C           5.5958   31.6314    3.7562 C.3     1  UNL1        0.0358
      9 C           3.1705   31.7376    4.4395 C.2     1  UNL1        0.0798
     10 N           2.6464   31.1724    3.2855 N.pl3   1  UNL1       -0.3547
     11 C           2.1657   31.9998    5.5362 C.2     1  UNL1        0.2057
     12 O           0.9657   32.0981    5.2965 O.2     1  UNL1       -0.2856
     13 N           4.2671   32.6507    8.4254 N.pl3   1  UNL1       -0.2841
     14 C           5.5845   32.3416    8.9933 C.3     1  UNL1        0.1101
     15 C           5.3595   31.1050    9.8146 C.3     1  UNL1        0.0928
     16 N           4.7845   29.8961    9.2241 N.3     1  UNL1       -0.2926
     17 C           3.8908   30.8520    9.9157 C.3     1  UNL1        0.1140
     18 H           3.1349   31.4323    2.4343 H       1  UNL1        0.1424
     19 H           1.6366   31.3268    3.2238 H       1  UNL1        0.1424
     20 H           4.9966   29.0897    9.8154 H       1  UNL1        0.1234
     21 C           1.3546   33.2966   10.1324 C.3     1  UNL1        0.1760
     22 O           2.7236   32.9176   10.2385 O.3     1  UNL1       -0.3372
     23 C           1.6047   30.2070    8.1947 C.3     1  UNL1        0.2186
     24 O           0.5815   30.0402    9.1965 O.3     1  UNL1       -0.4343
     25 C           0.6209   28.9117    9.9234 C.2     1  UNL1        0.3985
     26 N          -0.6190   28.6182   10.3666 N.am    1  UNL1       -0.2950
     27 O           1.6335   28.2944   10.2526 O.2     1  UNL1       -0.2267
     28 H          -1.2484   29.4229   10.3809 H       1  UNL1        0.1482
     29 H          -0.6720   27.9902   11.1565 H       1  UNL1        0.1482
@<TRIPOS>BOND
     1    21    22    1
     2     1    22    1
     3     1     2    1
     4     1    13    1
     5     1    17    1
     6     2    23    1
     7     2     3    1
     8    23    24    1
     9    24    25    1
    10    25    26   am
    11    25    27    2
    12    26    28    1
    13    26    29    1
    14     3     4    2
    15     3    11    1
    16     4     5    1
    17     4    13    1
    18     5     6    2
    19     5     7    1
    20     7     8    1
    21     7     9    2
    22     9    10    1
    23     9    11    1
    24    10    18    1
    25    10    19    1
    26    11    12    2
    27    13    14    1
    28    14    15    1
    29    15    16    1
    30    15    17    1
    31    16    17    1
    32    16    20    1



#	Name:			CHEMBL1054
#	Creating user name:	trannguyen
#	Creation time:		Wed Dec  7 14:36:25 2022


#	Modifying user name:	trannguyen
#	Modification time:	Wed Dec  7 14:36:25 2022

@<TRIPOS>MOLECULE
CHEMBL1054
 24 25 0 0 0
SMALL
GASTEIGER

@<TRIPOS>ATOM
      1 C           2.9843   32.0063    7.9727 C.ar    1  UNL1        0.1336
      2 C           2.4592   32.3047    6.7132 C.ar    1  UNL1        0.0419
      3 C           3.3304   32.5319    5.6438 C.ar    1  UNL1        0.1364
      4 C           4.7162   32.4715    5.7778 C.ar    1  UNL1        0.0653
      5 C           5.2184   32.1974    7.0590 C.ar    1  UNL1        0.0284
      6 C           4.3671   31.9520    8.1510 C.ar    1  UNL1        0.0775
      7 CL          5.1188   31.6091    9.6668 Cl      1  UNL1       -0.0808
      8 N           5.6059   32.8234    4.7649 N.pl3   1  UNL1       -0.3177
      9 C           5.1592   32.9202    3.3742 C.3     1  UNL1        0.1777
     10 N           3.9299   33.7208    3.3346 N.3     1  UNL1       -0.1604
     11 S           2.6559   32.9317    4.0787 S.O2    1  UNL1        0.0628
     12 O           1.6033   33.9044    4.2558 O.2     1  UNL1       -0.1529
     13 O           2.4400   31.6964    3.3599 O.2     1  UNL1       -0.1529
     14 H           6.5157   32.3683    4.8551 H       1  UNL1        0.1481
     15 H           3.6472   33.9559    2.3807 H       1  UNL1        0.1506
     16 N           0.3714   32.0922    8.7346 N.3     1  UNL1       -0.2034
     17 S           1.9005   31.7136    9.3310 S.O2    1  UNL1        0.0580
     18 O           2.1538   32.7062   10.3492 O.2     1  UNL1       -0.1532
     19 O           1.8554   30.2960    9.5870 O.2     1  UNL1       -0.1532
     20 H          -0.0114   32.8833    9.2566 H       1  UNL1        0.1442
     21 H          -0.2209   31.2608    8.7652 H       1  UNL1        0.1442
     22 C           6.2601   33.6010    2.4989 C.3     1  UNL1        0.1930
     23 CL          7.1828   34.8058    3.4486 Cl      1  UNL1       -0.0937
     24 CL          7.3971   32.3850    1.8393 Cl      1  UNL1       -0.0937
@<TRIPOS>BOND
     1    16    17    1
     2    16    20    1
     3    16    21    1
     4    17    18    2
     5    17    19    2
     6    17     1    1
     7     1     2   ar
     8     1     6   ar
     9     2     3   ar
    10     3     4   ar
    11     3    11    1
    12     4     5   ar
    13     4     8    1
    14     5     6   ar
    15     6     7    1
    16     8     9    1
    17     8    14    1
    18     9    22    1
    19     9    10    1
    20    22    23    1
    21    22    24    1
    22    10    11    1
    23    10    15    1
    24    11    12    2
    25    11    13    2



#	Name:			CHEMBL1062
#	Creating user name:	trannguyen
#	Creation time:		Wed Dec  7 14:36:25 2022


#	Modifying user name:	trannguyen
#	Modification time:	Wed Dec  7 14:36:25 2022

@<TRIPOS>MOLECULE
CHEMBL1062
 25 28 0 0 0
SMALL
GASTEIGER

@<TRIPOS>ATOM
      1 C           2.0422   30.6969    9.8069 C.3     1  UNL1        0.1388
      2 O           2.0428   31.1401   11.1687 O.3     1  UNL1       -0.3798
      3 C           2.5844   29.2612    9.7918 C.3     1  UNL1        0.0341
      4 C           4.0694   29.4519   10.0492 C.3     1  UNL1        0.0029
      5 C           4.4626   30.7222    9.2700 C.3     1  UNL1        0.0027
      6 C           5.4950   31.5840   10.0279 C.3     1  UNL1        0.0007
      7 C           6.7916   30.8511   10.4094 C.3     1  UNL1        0.0044
      8 C           7.7791   30.7377    9.2627 C.3     1  UNL1        0.0221
      9 C           8.1272   32.1033    8.7280 C.2     1  UNL1       -0.0420
     10 C           9.4119   32.4950    8.6585 C.2     1  UNL1        0.0289
     11 C           9.8054   33.7760    8.0255 C.2     1  UNL1        0.1725
     12 O          10.9915   34.0910    7.9892 O.2     1  UNL1       -0.2914
     13 C           8.7335   34.5984    7.3577 C.3     1  UNL1        0.0694
     14 C           7.4058   34.4408    8.0855 C.3     1  UNL1        0.0118
     15 C           6.9514   32.9574    8.2523 C.3     1  UNL1        0.0157
     16 C           6.5385   32.4137    6.8648 C.3     1  UNL1        0.0041
     17 C           5.7864   32.9406    9.3261 C.3     1  UNL1        0.0035
     18 C           4.4922   33.6397    8.8477 C.3     1  UNL1        0.0004
     19 C           3.2138   32.9786    9.3636 C.3     1  UNL1        0.0027
     20 C           3.1146   31.4820    8.9745 C.3     1  UNL1        0.0289
     21 C           2.8197   31.3681    7.4562 C.3     1  UNL1        0.0028
     22 H           1.5675   30.4754   11.6993 H       1  UNL1        0.2108
     23 C          -0.2069   29.4847    9.2510 C.3     1  UNL1        0.0748
     24 C           0.5989   30.7599    9.2577 C.2     1  UNL1        0.1749
     25 O           0.0980   31.8106    8.8499 O.2     1  UNL1       -0.2936
@<TRIPOS>BOND
     1    23    24    1
     2    24    25    2
     3     1     3    1
     4     1    20    1
     5     1     2    1
     6     1    24    1
     7     2    22    1
     8     3     4    1
     9     4     5    1
    10     5     6    1
    11     5    20    1
    12     6     7    1
    13     6    17    1
    14     7     8    1
    15     8     9    1
    16     9    10    2
    17     9    15    1
    18    10    11    1
    19    11    13    1
    20    11    12    2
    21    13    14    1
    22    14    15    1
    23    15    17    1
    24    15    16    1
    25    17    18    1
    26    18    19    1
    27    19    20    1
    28    20    21    1



#	Name:			CHEMBL1068
#	Creating user name:	trannguyen
#	Creation time:		Wed Dec  7 14:36:25 2022


#	Modifying user name:	trannguyen
#	Modification time:	Wed Dec  7 14:36:25 2022

@<TRIPOS>MOLECULE
CHEMBL1068
 21 23 0 0 0
SMALL
GASTEIGER

@<TRIPOS>ATOM
      1 N           1.2203   31.4062   10.1862 N.am    1  UNL1       -0.3126
      2 C           1.3630   31.6412    8.8472 C.2     1  UNL1        0.3084
      3 O           0.3602   31.9993    8.2342 O.2     1  UNL1       -0.2521
      4 N           2.6655   31.5300    8.3367 N.am    1  UNL1       -0.2224
      5 C           3.7104   30.8876    9.0695 C.ar    1  UNL1        0.0560
      6 C           3.5083   29.6126    9.6214 C.ar    1  UNL1        0.0150
      7 C           4.5161   28.9882   10.3573 C.ar    1  UNL1        0.0013
      8 C           5.7344   29.6326   10.5502 C.ar    1  UNL1       -0.0002
      9 C           5.9435   30.9013   10.0117 C.ar    1  UNL1       -0.0026
     10 C           4.9317   31.5368    9.2765 C.ar    1  UNL1       -0.0004
     11 C           5.1365   32.9095    8.7176 C.3     1  UNL1        0.0967
     12 C           5.2455   32.8725    7.2207 C.2     1  UNL1        0.1787
     13 O           6.2246   33.3694    6.6604 O.2     1  UNL1       -0.2909
     14 C           4.1372   32.2791    6.4079 C.ar    1  UNL1        0.0491
     15 C           4.3129   32.3809    5.0088 C.ar    1  UNL1        0.0041
     16 C           3.3277   31.9627    4.1193 C.ar    1  UNL1        0.0002
     17 C           2.1481   31.4353    4.6149 C.ar    1  UNL1        0.0013
     18 C           1.9618   31.3231    5.9958 C.ar    1  UNL1        0.0154
     19 C           2.9402   31.7351    6.9299 C.ar    1  UNL1        0.0623
     20 H           0.3059   31.6469   10.5466 H       1  UNL1        0.1465
     21 H           1.9997   31.6168   10.7938 H       1  UNL1        0.1465
@<TRIPOS>BOND
     1     1     2   am
     2     1    20    1
     3     1    21    1
     4     2     3    2
     5     2     4   am
     6     4     5    1
     7     4    19    1
     8     5     6   ar
     9     5    10   ar
    10     6     7   ar
    11     7     8   ar
    12     8     9   ar
    13     9    10   ar
    14    10    11    1
    15    11    12    1
    16    12    13    2
    17    12    14    1
    18    14    15   ar
    19    14    19   ar
    20    15    16   ar
    21    16    17   ar
    22    17    18   ar
    23    18    19   ar



#	Name:			CHEMBL1069
#	Creating user name:	trannguyen
#	Creation time:		Wed Dec  7 14:36:25 2022


#	Modifying user name:	trannguyen
#	Modification time:	Wed Dec  7 14:36:25 2022

@<TRIPOS>MOLECULE
CHEMBL1069
 34 36 0 0 0
SMALL
GASTEIGER

@<TRIPOS>ATOM
      1 C           6.6929   33.0714    8.7917 C.ar    1  UNL1       -0.0023
      2 C           5.3509   33.1949    8.3711 C.ar    1  UNL1       -0.0026
      3 C           4.3587   32.2390    8.7459 C.ar    1  UNL1       -0.0003
      4 C           4.6663   31.1202    9.5478 C.ar    1  UNL1        0.0001
      5 C           5.9446   31.1479   10.1282 C.ar    1  UNL1       -0.0003
      6 C           6.9293   32.0857    9.7514 C.ar    1  UNL1       -0.0026
      7 C           3.8622   29.8337    9.5522 C.ar    1  UNL1        0.0030
      8 C           4.5826   28.6179    9.6737 C.ar    1  UNL1        0.0001
      9 C           3.9977   27.4348   10.1536 C.ar    1  UNL1        0.0000
     10 C           2.6534   27.4030   10.4767 C.ar    1  UNL1        0.0001
     11 C           1.8788   28.5241   10.2096 C.ar    1  UNL1        0.0031
     12 C           2.4526   29.7349    9.7298 C.ar    1  UNL1        0.0371
     13 C           1.5246   30.8100    9.3813 C.ar    1  UNL1        0.1806
     14 N           0.8190   30.9591    8.2774 N.ar    1  UNL1       -0.1084
     15 N           0.0138   32.0570    8.4712 N.ar    1  UNL1       -0.0229
     16 N           0.2134   32.5880    9.6678 N.ar    1  UNL1       -0.0464
     17 N           1.1512   31.8198   10.2304 N.ar    1  UNL1       -0.2388
     18 H           1.4631   32.0205   11.1713 H       1  UNL1        0.1923
     19 C           7.8341   33.8855    8.1479 C.3     1  UNL1        0.1206
     20 C           8.3516   33.6500    5.7122 C.2     1  UNL1        0.2262
     21 O           7.5320   34.5599    5.5233 O.2     1  UNL1       -0.2749
     22 N           8.6761   33.2310    7.0658 N.am    1  UNL1       -0.2673
     23 C           8.9921   33.0029    4.4274 C.3     1  UNL1        0.0853
     24 C           8.2388   33.1091    3.0010 C.3     1  UNL1        0.0096
     25 C           6.4146   31.2203    3.7289 C.3     1  UNL1        0.0000
     26 C           6.9360   32.2921    2.7224 C.3     1  UNL1        0.0005
     27 C          10.0853   32.8021    7.4776 C.3     1  UNL1        0.1746
     28 C          10.3609   31.3235    7.2744 C.2     1  UNL1        0.3320
     29 O           9.5814   30.3753    7.6464 O.2     1  UNL1       -0.2485
     30 O          11.4896   31.0243    6.6576 O.3     1  UNL1       -0.4790
     31 H          11.4650   30.0602    6.4742 H       1  UNL1        0.2951
     32 C          10.5864   33.2254    8.9437 C.3     1  UNL1        0.0292
     33 C          11.2342   32.1365    9.8049 C.3     1  UNL1        0.0023
     34 C          11.5503   34.4231    8.9442 C.3     1  UNL1        0.0023
@<TRIPOS>BOND
     1    25    26    1
     2    26    24    1
     3    24    23    1
     4    23    20    1
     5    20    21    2
     6    20    22   am
     7    22    19    1
     8    19     1    1
     9     1     2   ar
    10     1     6   ar
    11     2     3   ar
    12     3     4   ar
    13     4     7    1
    14     4     5   ar
    15     7     8   ar
    16     7    12   ar
    17     8     9   ar
    18     9    10   ar
    19    10    11   ar
    20    11    12   ar
    21    12    13    1
    22    13    14   ar
    23    13    17   ar
    24    14    15   ar
    25    15    16   ar
    26    16    17   ar
    27    17    18    1
    28     5     6   ar
    29    27    28    1
    30    27    32    1
    31    27    22    1
    32    28    29    2
    33    28    30    1
    34    30    31    1
    35    32    33    1
    36    32    34    1



#	Name:			CHEMBL107
#	Creating user name:	trannguyen
#	Creation time:		Wed Dec  7 14:36:25 2022


#	Modifying user name:	trannguyen
#	Modification time:	Wed Dec  7 14:36:25 2022

@<TRIPOS>MOLECULE
CHEMBL107
 30 32 0 0 0
SMALL
GASTEIGER

@<TRIPOS>ATOM
      1 C           4.2700   30.2365    9.9782 C.ar    1  UNL1        0.1751
      2 C           5.6608   30.1883    9.9684 C.ar    1  UNL1        0.0360
      3 C           6.4176   30.9912    9.1099 C.ar    1  UNL1       -0.0160
      4 C           5.7865   31.8858    8.2283 C.ar    1  UNL1        0.0330
      5 C           4.3613   31.9910    8.2609 C.ar    1  UNL1        0.1750
      6 C           3.5999   31.1480    9.1329 C.ar    1  UNL1        0.2060
      7 C           6.6922   32.6345    7.2835 C.ar    1  UNL1        0.0005
      8 C           6.6434   32.1865    6.0010 C.ar    1  UNL1        0.0030
      9 C           7.5379   32.7112    4.9756 C.ar    1  UNL1        0.0402
     10 C           7.3727   34.0146    4.6841 C.ar    1  UNL1        0.1774
     11 C           8.2978   34.8466    5.5100 C.ar    1  UNL1        0.2290
     12 O           8.9170   35.7993    5.0529 O.2     1  UNL1       -0.2833
     13 C           8.3967   34.5121    6.9640 C.ar    1  UNL1        0.0425
     14 C           7.7607   33.5894    7.7365 C.ar    1  UNL1       -0.0011
     15 C           8.2708   33.5386    9.1816 C.3     1  UNL1        0.0945
     16 C           8.3371   32.2290    9.9963 C.3     1  UNL1        0.0288
     17 C           7.9154   30.9648    9.2621 C.3     1  UNL1        0.0286
     18 N           7.5934   34.6021    9.9135 N.am    1  UNL1       -0.3022
     19 C           8.1304   35.5369   10.7565 C.2     1  UNL1        0.2232
     20 C           9.6195   35.5001   11.0109 C.3     1  UNL1        0.0946
     21 O           7.4111   36.3646   11.2861 O.2     1  UNL1       -0.2751
     22 H           6.5981   34.7230    9.7574 H       1  UNL1        0.1497
     23 C           3.1471   28.1508   10.4416 C.3     1  UNL1        0.2526
     24 O           3.5296   29.4625   10.8262 O.3     1  UNL1       -0.4683
     25 O           3.8534   32.9616    7.4210 O.3     1  UNL1       -0.4683
     26 C           3.0985   32.5850    6.2745 C.3     1  UNL1        0.2526
     27 O           2.2399   31.3509    9.1978 O.3     1  UNL1       -0.4654
     28 C           1.6951   32.3704   10.0289 C.3     1  UNL1        0.2528
     29 O           6.1281   34.5296    4.3487 O.3     1  UNL1       -0.4682
     30 C           5.5417   33.8534    3.2376 C.3     1  UNL1        0.2526
@<TRIPOS>BOND
     1    23    24    1
     2    24     1    1
     3     1     2   ar
     4     1     6   ar
     5     2     3   ar
     6     3     4   ar
     7     3    17    1
     8     4     5   ar
     9     4     7    1
    10     5    25    1
    11     5     6   ar
    12    25    26    1
    13     6    27    1
    14    27    28    1
    15     7     8   ar
    16     7    14   ar
    17     8     9   ar
    18     9    10   ar
    19    10    29    1
    20    10    11   ar
    21    29    30    1
    22    11    12    2
    23    11    13   ar
    24    13    14   ar
    25    14    15    1
    26    15    18    1
    27    15    16    1
    28    18    19   am
    29    18    22    1
    30    19    20    1
    31    19    21    2
    32    16    17    1



#	Name:			CHEMBL1070
#	Creating user name:	trannguyen
#	Creation time:		Wed Dec  7 14:36:25 2022


#	Modifying user name:	trannguyen
#	Modification time:	Wed Dec  7 14:36:25 2022

@<TRIPOS>MOLECULE
CHEMBL1070
 17 18 0 0 0
SMALL
GASTEIGER

@<TRIPOS>ATOM
      1 C           3.6334   32.6437    4.4336 C.ar    1  UNL1        0.1387
      2 C           2.4200   31.9597    4.4139 C.ar    1  UNL1        0.0369
      3 C           1.8970   31.4157    5.5852 C.ar    1  UNL1        0.0031
      4 C           2.5949   31.5081    6.7921 C.ar    1  UNL1       -0.0001
      5 C           2.0695   30.9307    7.9572 C.ar    1  UNL1       -0.0043
      6 C           2.7918   30.9311    9.1552 C.ar    1  UNL1       -0.0218
      7 C           4.0383   31.5656    9.1870 C.ar    1  UNL1       -0.0043
      8 C           4.5521   32.1888    8.0410 C.ar    1  UNL1       -0.0002
      9 C           3.8462   32.1606    6.8247 C.ar    1  UNL1        0.0030
     10 C           4.3432   32.7415    5.6375 C.ar    1  UNL1        0.0369
     11 C           5.6277   33.3820    3.3864 C.3     1  UNL1        0.2525
     12 O           4.2084   33.2444    3.3436 O.3     1  UNL1       -0.4714
     13 C           2.2468   30.2140   10.3679 C.3     1  UNL1        0.0341
     14 C           1.7388   28.8128   10.0237 C.3     1  UNL1        0.0692
     15 C           2.6310   27.7373   10.6095 C.2     1  UNL1        0.1514
     16 C           4.0372   27.6474   10.0775 C.3     1  UNL1        0.0723
     17 O           2.2457   26.9837   11.5108 O.2     1  UNL1       -0.2960
@<TRIPOS>BOND
     1    11    12    1
     2    12     1    1
     3     1     2   ar
     4     1    10   ar
     5     2     3   ar
     6     3     4   ar
     7     4     5   ar
     8     4     9   ar
     9     5     6   ar
    10     6    13    1
    11     6     7   ar
    12    13    14    1
    13    14    15    1
    14    15    16    1
    15    15    17    2
    16     7     8   ar
    17     8     9   ar
    18     9    10   ar



#	Name:			CHEMBL108
#	Creating user name:	trannguyen
#	Creation time:		Wed Dec  7 14:36:25 2022


#	Modifying user name:	trannguyen
#	Modification time:	Wed Dec  7 14:36:25 2022

@<TRIPOS>MOLECULE
CHEMBL108
 20 22 0 0 0
SMALL
GASTEIGER

@<TRIPOS>ATOM
      1 N           1.0173   31.5308   10.1487 N.am    1  UNL1       -0.3126
      2 C           1.2143   31.6848    8.8038 C.2     1  UNL1        0.3084
      3 O           0.2478   32.0514    8.1386 O.2     1  UNL1       -0.2521
      4 N           2.5265   31.4947    8.3538 N.am    1  UNL1       -0.2222
      5 C           3.5028   30.7370    9.0932 C.ar    1  UNL1        0.0595
      6 C           3.1034   29.5378    9.7191 C.ar    1  UNL1        0.0153
      7 C           4.0008   28.7677   10.4608 C.ar    1  UNL1        0.0013
      8 C           5.3189   29.1820   10.5934 C.ar    1  UNL1        0.0001
      9 C           5.7372   30.3608    9.9775 C.ar    1  UNL1        0.0012
     10 C           4.8464   31.1387    9.2143 C.ar    1  UNL1        0.0141
     11 C           5.3670   32.3956    8.6721 C.2     1  UNL1        0.0013
     12 C           5.0191   32.9130    7.4895 C.2     1  UNL1        0.0013
     13 C           4.0571   32.3139    6.5579 C.ar    1  UNL1        0.0141
     14 C           4.3187   32.4886    5.1854 C.ar    1  UNL1        0.0012
     15 C           3.4129   32.0559    4.2187 C.ar    1  UNL1        0.0001
     16 C           2.2243   31.4578    4.6122 C.ar    1  UNL1        0.0013
     17 C           1.9481   31.2873    5.9706 C.ar    1  UNL1        0.0153
     18 C           2.8545   31.7022    6.9665 C.ar    1  UNL1        0.0595
     19 H           0.1043   31.8398   10.4556 H       1  UNL1        0.1465
     20 H           1.7888   31.7808   10.7513 H       1  UNL1        0.1465
@<TRIPOS>BOND
     1     1     2   am
     2     1    19    1
     3     1    20    1
     4     2     3    2
     5     2     4   am
     6     4     5    1
     7     4    18    1
     8     5     6   ar
     9     5    10   ar
    10     6     7   ar
    11     7     8   ar
    12     8     9   ar
    13     9    10   ar
    14    10    11    1
    15    11    12    2
    16    12    13    1
    17    13    14   ar
    18    13    18   ar
    19    14    15   ar
    20    15    16   ar
    21    16    17   ar
    22    17    18   ar



#	Name:			CHEMBL1082
#	Creating user name:	trannguyen
#	Creation time:		Wed Dec  7 14:36:25 2022


#	Modifying user name:	trannguyen
#	Modification time:	Wed Dec  7 14:36:25 2022

@<TRIPOS>MOLECULE
CHEMBL1082
 30 32 0 0 0
SMALL
GASTEIGER

@<TRIPOS>ATOM
      1 N           5.0504   32.6824    8.7137 N.am    1  UNL1       -0.2950
      2 C           3.7744   32.6034    9.2351 C.2     1  UNL1        0.2411
      3 O           3.4319   33.2385   10.2315 O.2     1  UNL1       -0.2733
      4 H           5.2644   32.0855    7.9222 H       1  UNL1        0.1499
      5 C           8.6672   31.2351    7.1708 C.3     1  UNL1        0.0131
      6 C           9.0777   31.5169    8.6278 C.3     1  UNL1        0.0679
      7 C          10.2027   30.5449    9.0037 C.3     1  UNL1        0.0131
      8 S           7.6035   31.1279    9.6936 S.3     1  UNL1       -0.1185
      9 C           7.2284   32.8703   10.0894 C.3     1  UNL1        0.1509
     10 CA          6.0773   33.5582    9.3136 C.3     1  UNL1        0.1777
     11 C           7.2190   34.0579    8.3900 C.2     1  UNL1        0.2471
     12 O           7.3590   34.4735    7.2584 O.2     1  UNL1       -0.2730
     13 N           8.1754   33.6792    9.2993 N.am    1  UNL1       -0.2597
     14 CA          9.4005   33.0196    8.8284 C.3     1  UNL1        0.1843
     15 C          10.5354   33.3501    9.8106 C.2     1  UNL1        0.3329
     16 O          10.4495   33.2804   11.0269 O.2     1  UNL1       -0.2484
     17 OXT        11.7057   33.6750    9.2022 O.3     1  UNL1       -0.4790
     18 HXT        11.6186   33.5624    8.2315 H       1  UNL1        0.2951
     19 CA          2.8405   31.5848    8.5423 C.3     1  UNL1        0.1512
     20 N           1.5422   32.2413    8.2638 N.3     1  UNL1       -0.3116
     21 H1          0.9576   31.5673    7.7684 H       1  UNL1        0.1195
     22 H2          1.7127   32.9955    7.5972 H       1  UNL1        0.1195
     23 C           2.6728   30.3059    9.3453 C.ar    1  UNL1        0.0007
     24 C           1.3847   29.8813    9.7137 C.ar    1  UNL1        0.0006
     25 C           1.2034   28.7128   10.4594 C.ar    1  UNL1        0.0363
     26 C           2.3109   27.9572   10.8294 C.ar    1  UNL1        0.1337
     27 O           2.1834   26.8170   11.5648 O.3     1  UNL1       -0.5055
     28 C           3.5910   28.3459   10.4614 C.ar    1  UNL1        0.0363
     29 C           3.7719   29.5148    9.7235 C.ar    1  UNL1        0.0006
     30 H           1.2450   26.6883   11.7772 H       1  UNL1        0.2922
@<TRIPOS>BOND
     1     5     6    1
     2     6     7    1
     3     6     8    1
     4     6    14    1
     5     8     9    1
     6     9    10    1
     7     9    13    1
     8    10    11    1
     9    10     1    1
    10     1     2   am
    11     1     4    1
    12     2     3    2
    13    19    20    1
    14    19    23    1
    15    19     2    1
    16    20    21    1
    17    20    22    1
    18    23    24   ar
    19    23    29   ar
    20    24    25   ar
    21    25    26   ar
    22    26    27    1
    23    26    28   ar
    24    27    30    1
    25    28    29   ar
    26    11    12    2
    27    11    13   am
    28    13    14    1
    29    14    15    1
    30    15    16    2
    31    15    17    1
    32    17    18    1



#	Name:			CHEMBL108545
#	Creating user name:	trannguyen
#	Creation time:		Wed Dec  7 14:36:25 2022


#	Modifying user name:	trannguyen
#	Modification time:	Wed Dec  7 14:36:25 2022

@<TRIPOS>MOLECULE
CHEMBL108545
 12 12 0 0 0
SMALL
GASTEIGER

@<TRIPOS>ATOM
      1 C           1.6940   29.9629    9.6766 C.ar    1  UNL1        0.1092
      2 C           3.0756   30.0786    9.4545 C.ar    1  UNL1        0.0095
      3 C           3.9452   29.0675    9.8671 C.ar    1  UNL1        0.0004
      4 C           3.4405   27.9319   10.4979 C.ar    1  UNL1        0.0031
      5 C           2.0671   27.8011   10.7124 C.ar    1  UNL1        0.0368
      6 C           1.1944   28.8109   10.2969 C.ar    1  UNL1        0.1398
      7 O          -0.1497   28.6359   10.4735 O.3     1  UNL1       -0.5053
      8 H          -0.3075   27.8316   10.9936 H       1  UNL1        0.2922
      9 C           0.8404   31.0834    9.2143 C.2     1  UNL1        0.3443
     10 O          -0.2967   30.9256    8.7906 O.2     1  UNL1       -0.2448
     11 C           1.1262   33.1766   10.2175 C.3     1  UNL1        0.2560
     12 O           1.5346   32.2463    9.2166 O.3     1  UNL1       -0.4413
@<TRIPOS>BOND
     1    11    12    1
     2    12     9    1
     3     9    10    2
     4     9     1    1
     5     1     2   ar
     6     1     6   ar
     7     2     3   ar
     8     3     4   ar
     9     4     5   ar
    10     5     6   ar
    11     6     7    1
    12     7     8    1



#	Name:			CHEMBL1089
#	Creating user name:	trannguyen
#	Creation time:		Wed Dec  7 14:36:25 2022


#	Modifying user name:	trannguyen
#	Modification time:	Wed Dec  7 14:36:25 2022

@<TRIPOS>MOLECULE
CHEMBL1089
 13 13 0 0 0
SMALL
GASTEIGER

@<TRIPOS>ATOM
      1 C           4.0656   27.8303   10.2615 C.3     1  UNL1        0.0448
      2 C           4.1925   29.2828    9.8670 C.ar    1  UNL1       -0.0208
      3 C           3.0650   30.0067    9.4549 C.ar    1  UNL1       -0.0042
      4 C           3.1844   31.3430    9.0684 C.ar    1  UNL1       -0.0003
      5 C           4.4299   31.9670    9.0870 C.ar    1  UNL1       -0.0000
      6 C           5.5580   31.2552    9.4915 C.ar    1  UNL1       -0.0003
      7 C           5.4409   29.9188    9.8779 C.ar    1  UNL1       -0.0042
      8 C           2.6396   27.3022   10.0547 C.3     1  UNL1        0.0885
      9 N           1.7801   27.7794   12.2144 N.3     1  UNL1       -0.2698
     10 N           2.1246   26.7176   11.3035 N.3     1  UNL1       -0.2484
     11 H           1.6849   27.4304   13.1719 H       1  UNL1        0.1368
     12 H           0.8906   28.2279   11.9807 H       1  UNL1        0.1368
     13 H           1.3365   26.0965   11.0973 H       1  UNL1        0.1411
@<TRIPOS>BOND
     1     9    10    1
     2     9    11    1
     3     9    12    1
     4    10     8    1
     5    10    13    1
     6     8     1    1
     7     1     2    1
     8     2     3   ar
     9     2     7   ar
    10     3     4   ar
    11     4     5   ar
    12     5     6   ar
    13     6     7   ar



#	Name:			CHEMBL109
#	Creating user name:	trannguyen
#	Creation time:		Wed Dec  7 14:36:25 2022


#	Modifying user name:	trannguyen
#	Modification time:	Wed Dec  7 14:36:25 2022

@<TRIPOS>MOLECULE
CHEMBL109
 11 10 0 0 0
SMALL
GASTEIGER

@<TRIPOS>ATOM
      1 C           2.4057   29.0474   10.4926 C.3     1  UNL1        0.0989
      2 C           1.6879   27.9056   11.1872 C.2     1  UNL1        0.3132
      3 O           2.2522   26.9841   11.7657 O.2     1  UNL1       -0.2503
      4 O           0.3423   27.9749   11.0904 O.3     1  UNL1       -0.4802
      5 H           0.0138   28.7409   10.5829 H       1  UNL1        0.2951
      6 C           3.7595   28.5679    9.9205 C.3     1  UNL1        0.0111
      7 C           5.4002   30.4806    9.6020 C.3     1  UNL1        0.0000
      8 C           4.9657   29.3260   10.4966 C.3     1  UNL1        0.0006
      9 C           1.4898   29.6101    9.3859 C.3     1  UNL1        0.0111
     10 C           1.7299   31.0884    9.0369 C.3     1  UNL1        0.0006
     11 C           2.2496   31.3109    7.6247 C.3     1  UNL1        0.0000
@<TRIPOS>BOND
     1     7     8    1
     2     8     6    1
     3     6     1    1
     4     1     9    1
     5     1     2    1
     6     9    10    1
     7    10    11    1
     8     2     3    2
     9     2     4    1
    10     4     5    1



#	Name:			CHEMBL110691
#	Creating user name:	trannguyen
#	Creation time:		Wed Dec  7 14:36:25 2022


#	Modifying user name:	trannguyen
#	Modification time:	Wed Dec  7 14:36:25 2022

@<TRIPOS>MOLECULE
CHEMBL110691
 28 31 0 0 0
SMALL
GASTEIGER

@<TRIPOS>ATOM
      1 C           9.3929   32.5432    7.7958 C.3     1  UNL1        0.1859
      2 C           9.2511   31.0237    7.4993 C.3     1  UNL1        0.0474
      3 C           7.8747   30.6262    8.0065 C.3     1  UNL1        0.0045
      4 C           7.7622   31.3749    9.3254 C.3     1  UNL1        0.0078
      5 C           6.3998   31.3199   10.0795 C.3     1  UNL1        0.0233
      6 C           5.8340   29.9304   10.1928 C.2     1  UNL1       -0.0154
      7 C           4.5669   29.5853    9.9153 C.2     1  UNL1        0.0495
      8 CL          4.1305   27.9174   10.1549 Cl      1  UNL1       -0.0829
      9 C           3.5751   30.5275    9.3876 C.2     1  UNL1       -0.0097
     10 C           2.2545   30.2580    9.4065 C.2     1  UNL1        0.0340
     11 C           1.2401   31.1628    8.8187 C.2     1  UNL1        0.1728
     12 O           0.0592   30.8219    8.8174 O.2     1  UNL1       -0.2913
     13 C           1.6945   32.4401    8.1699 C.3     1  UNL1        0.0695
     14 C           3.0116   32.9229    8.7608 C.3     1  UNL1        0.0122
     15 C           4.1335   31.8386    8.7965 C.3     1  UNL1        0.0205
     16 C           4.5436   31.5353    7.3444 C.3     1  UNL1        0.0044
     17 C           5.3086   32.3613    9.7219 C.3     1  UNL1        0.0078
     18 C           5.9250   33.7299    9.3901 C.3     1  UNL1        0.0008
     19 C           7.1365   33.6778    8.4703 C.3     1  UNL1        0.0038
     20 C           8.3072   32.7925    8.9749 C.3     1  UNL1        0.0404
     21 C           8.8956   33.4153   10.2594 C.3     1  UNL1        0.0039
     22 C          10.8663   32.8627    8.1978 C.2     1  UNL1        0.1869
     23 C          11.7187   31.7621    8.7933 C.3     1  UNL1        0.0760
     24 O          11.3745   33.9692    7.9926 O.2     1  UNL1       -0.2924
     25 O           9.0061   33.3611    6.6505 O.3     1  UNL1       -0.4486
     26 C           7.7527   32.6865    4.7789 C.3     1  UNL1        0.1212
     27 C           9.1095   32.9096    5.3760 C.2     1  UNL1        0.3177
     28 O          10.1533   32.8178    4.7360 O.2     1  UNL1       -0.2501
@<TRIPOS>BOND
     1    26    27    1
     2    27    28    2
     3    27    25    1
     4     1     2    1
     5     1    20    1
     6     1    25    1
     7     1    22    1
     8    22    23    1
     9    22    24    2
    10     2     3    1
    11     3     4    1
    12     4     5    1
    13     4    20    1
    14     5     6    1
    15     5    17    1
    16     6     7    2
    17     7     9    1
    18     7     8    1
    19     9    10    2
    20     9    15    1
    21    10    11    1
    22    11    13    1
    23    11    12    2
    24    13    14    1
    25    14    15    1
    26    15    17    1
    27    15    16    1
    28    17    18    1
    29    18    19    1
    30    19    20    1
    31    20    21    1



#	Name:			CHEMBL1108
#	Creating user name:	trannguyen
#	Creation time:		Wed Dec  7 14:36:25 2022


#	Modifying user name:	trannguyen
#	Modification time:	Wed Dec  7 14:36:25 2022

@<TRIPOS>MOLECULE
CHEMBL1108
 29 32 0 0 0
SMALL
GASTEIGER

@<TRIPOS>ATOM
      1 N           7.3513   33.0051    7.8587 N.3     1  UNL1       -0.2686
      2 C           6.0455   33.3828    7.2831 C.3     1  UNL1        0.1000
      3 C           4.8473   32.6908    7.8772 C.2     1  UNL1        0.0045
      4 C           4.8561   31.9976    9.0326 C.2     1  UNL1        0.0441
      5 C           6.1433   31.9530    9.8169 C.3     1  UNL1        0.0613
      6 C           7.2175   32.9284    9.3188 C.3     1  UNL1        0.0786
      7 N           3.7316   31.3438    9.5357 N.ar    1  UNL1       -0.2630
      8 C           2.4681   31.9931    9.8188 C.ar    1  UNL1        0.3319
      9 O           2.1593   33.1650    9.7544 O.2     1  UNL1       -0.2462
     10 N           1.5850   30.9902   10.2490 N.ar    1  UNL1       -0.3051
     11 H           0.6320   31.1792   10.5123 H       1  UNL1        0.1705
     12 C           2.2348   29.7715   10.2618 C.ar    1  UNL1        0.0764
     13 C           1.7070   28.5411   10.5938 C.ar    1  UNL1        0.0186
     14 C           2.5606   27.4416   10.5190 C.ar    1  UNL1        0.0016
     15 C           3.8966   27.6041   10.1181 C.ar    1  UNL1        0.0016
     16 C           4.3991   28.8673    9.7773 C.ar    1  UNL1        0.0191
     17 C           3.5560   29.9617    9.8533 C.ar    1  UNL1        0.0835
     18 C           7.9013   31.8084    7.1972 C.3     1  UNL1        0.0728
     19 C           7.1092   31.2843    5.9868 C.3     1  UNL1        0.0254
     20 C           7.2949   32.0643    4.6836 C.3     1  UNL1        0.0706
     21 O           6.6012   31.3245    2.4940 O.2     1  UNL1       -0.2913
     22 C           6.2764   31.7818    3.5873 C.2     1  UNL1        0.1731
     23 C           4.8603   32.1974    3.8053 C.ar    1  UNL1        0.0348
     24 C           3.8783   31.2077    3.9758 C.ar    1  UNL1        0.0051
     25 C           2.5430   31.5702    4.1751 C.ar    1  UNL1        0.0297
     26 C           2.1989   32.9166    4.2151 C.ar    1  UNL1        0.1401
     27 F           0.9221   33.2673    4.4159 F       1  UNL1       -0.2042
     28 C           3.1627   33.9068    4.0580 C.ar    1  UNL1        0.0297
     29 C           4.4974   33.5487    3.8547 C.ar    1  UNL1        0.0051
@<TRIPOS>BOND
     1    21    22    2
     2    22    20    1
     3    22    23    1
     4    20    19    1
     5    19    18    1
     6    18     1    1
     7     1     2    1
     8     1     6    1
     9     2     3    1
    10     3     4    2
    11     4     7    1
    12     4     5    1
    13     7     8   ar
    14     7    17   ar
    15     8     9    2
    16     8    10   ar
    17    10    11    1
    18    10    12   ar
    19    12    13   ar
    20    12    17   ar
    21    13    14   ar
    22    14    15   ar
    23    15    16   ar
    24    16    17   ar
    25     5     6    1
    26    23    24   ar
    27    23    29   ar
    28    24    25   ar
    29    25    26   ar
    30    26    27    1
    31    26    28   ar
    32    28    29   ar



#	Name:			CHEMBL1109
#	Creating user name:	trannguyen
#	Creation time:		Wed Dec  7 14:36:25 2022


#	Modifying user name:	trannguyen
#	Modification time:	Wed Dec  7 14:36:25 2022

@<TRIPOS>MOLECULE
CHEMBL1109
 25 27 0 0 0
SMALL
GASTEIGER

@<TRIPOS>ATOM
      1 N           6.5723   31.3983    8.2301 N.pl3   1  UNL1       -0.1988
      2 H           7.2657   30.6988    8.4458 H       1  UNL1        0.1753
      3 C           6.9173   32.3643    7.2968 C.ar    1  UNL1        0.1500
      4 C           8.0714   33.1072    7.3660 C.ar    1  UNL1        0.0580
      5 C           7.9303   34.0644    6.3480 C.ar    1  UNL1        0.1235
      6 N           6.7745   33.9509    5.6917 N.ar    1  UNL1       -0.1623
      7 N           6.1791   32.8504    6.2242 N.ar    1  UNL1       -0.2148
      8 C           5.0238   32.2856    5.6245 C.ar    1  UNL1        0.0842
      9 C           5.1281   31.6697    4.3701 C.ar    1  UNL1        0.0192
     10 C           3.9978   31.1038    3.7756 C.ar    1  UNL1        0.0015
     11 C           2.7722   31.1219    4.4405 C.ar    1  UNL1        0.0001
     12 C           2.6706   31.7096    5.7001 C.ar    1  UNL1        0.0015
     13 C           3.7916   32.2943    6.2941 C.ar    1  UNL1        0.0192
     14 S           5.7399   31.8663    9.5730 S.O2    1  UNL1        0.0747
     15 O           5.0016   33.0850    9.3560 O.2     1  UNL1       -0.1499
     16 O           6.6344   31.7392   10.7138 O.2     1  UNL1       -0.1499
     17 N           1.7792   27.4439   10.1290 N.pl3   1  UNL1       -0.3570
     18 C           2.7004   28.4902   10.0629 C.ar    1  UNL1        0.0416
     19 C           4.0719   28.2258   10.1444 C.ar    1  UNL1        0.0155
     20 C           5.0079   29.2497    9.9909 C.ar    1  UNL1        0.0214
     21 C           4.5613   30.5427    9.7161 C.ar    1  UNL1        0.1253
     22 C           3.2012   30.8057    9.5312 C.ar    1  UNL1        0.0214
     23 C           2.2795   29.7701    9.6891 C.ar    1  UNL1        0.0155
     24 H           2.0826   26.6510   10.6867 H       1  UNL1        0.1424
     25 H           0.8317   27.7295   10.3582 H       1  UNL1        0.1424
@<TRIPOS>BOND
     1    17    18    1
     2    17    24    1
     3    17    25    1
     4    18    19   ar
     5    18    23   ar
     6    19    20   ar
     7    20    21   ar
     8    21    14    1
     9    21    22   ar
    10    14    15    2
    11    14    16    2
    12    14     1    1
    13     1     3    1
    14     1     2    1
    15     3     4   ar
    16     3     7   ar
    17     4     5   ar
    18     5     6   ar
    19     6     7   ar
    20     7     8    1
    21     8     9   ar
    22     8    13   ar
    23     9    10   ar
    24    10    11   ar
    25    11    12   ar
    26    12    13   ar
    27    22    23   ar



#	Name:			CHEMBL1110
#	Creating user name:	trannguyen
#	Creation time:		Wed Dec  7 14:36:25 2022


#	Modifying user name:	trannguyen
#	Modification time:	Wed Dec  7 14:36:25 2022

@<TRIPOS>MOLECULE
CHEMBL1110
 23 26 0 0 0
SMALL
GASTEIGER

@<TRIPOS>ATOM
      1 N           2.4073   31.6415    8.8193 N.am    1  UNL1       -0.2699
      2 C           1.7170   31.0869    7.6391 C.3     1  UNL1        0.1003
      3 C           1.9907   31.8637    6.3391 C.3     1  UNL1        0.0654
      4 C           3.4507   32.1297    6.2694 C.ar    1  UNL1        0.0432
      5 C           4.2586   32.2304    7.3855 C.ar    1  UNL1        0.0666
      6 C           5.5832   32.4702    6.9218 C.ar    1  UNL1        0.0212
      7 C           6.8262   32.6499    7.5645 C.ar    1  UNL1        0.0016
      8 C           7.9826   32.8353    6.8018 C.ar    1  UNL1        0.0001
      9 C           7.9171   32.8431    5.4126 C.ar    1  UNL1        0.0015
     10 C           6.6982   32.6747    4.7482 C.ar    1  UNL1        0.0172
     11 C           5.5378   32.4935    5.5205 C.ar    1  UNL1        0.0598
     12 N           4.2165   32.3123    5.1510 N.ar    1  UNL1       -0.3284
     13 C           3.7264   32.3033    3.7903 C.3     1  UNL1        0.1301
     14 C           3.7378   32.0843    8.7432 C.2     1  UNL1        0.2504
     15 O           4.4186   32.3446    9.7313 O.2     1  UNL1       -0.2699
     16 C           1.8951   31.2604   10.1302 C.3     1  UNL1        0.1407
     17 C          -0.4109   28.8526   10.0469 C.3     1  UNL1        0.0511
     18 C           1.0483   28.7972   10.2917 C.ar    1  UNL1        0.0505
     19 N           1.7111   27.6309   10.5770 N.ar    1  UNL1       -0.3384
     20 H           1.3003   26.7102   10.6456 H       1  UNL1        0.1672
     21 C           3.0281   27.9339   10.7635 C.ar    1  UNL1        0.1745
     22 N           3.2519   29.2185   10.6201 N.ar    1  UNL1       -0.2271
     23 C           2.0230   29.7802   10.3256 C.ar    1  UNL1        0.0921
@<TRIPOS>BOND
     1    17    18    1
     2    18    19   ar
     3    18    23   ar
     4    19    20    1
     5    19    21   ar
     6    21    22   ar
     7    22    23   ar
     8    23    16    1
     9    16     1    1
    10     1     2    1
    11     1    14   am
    12     2     3    1
    13     3     4    1
    14     4     5   ar
    15     4    12   ar
    16     5     6   ar
    17     5    14    1
    18     6     7   ar
    19     6    11   ar
    20     7     8   ar
    21     8     9   ar
    22     9    10   ar
    23    10    11   ar
    24    11    12   ar
    25    12    13    1
    26    14    15    2



#	Name:			CHEMBL1117
#	Creating user name:	trannguyen
#	Creation time:		Wed Dec  7 14:36:25 2022


#	Modifying user name:	trannguyen
#	Modification time:	Wed Dec  7 14:36:25 2022

@<TRIPOS>MOLECULE
CHEMBL1117
 42 46 0 0 0
SMALL
GASTEIGER

@<TRIPOS>ATOM
      1 C           3.3660   33.1248    5.2913 C.3     1  UNL1        0.1458
      2 O           3.1137   34.3842    5.9200 O.3     1  UNL1       -0.3794
      3 C           4.7163   33.1826    4.5681 C.3     1  UNL1        0.0634
      4 C           5.9274   32.8883    5.4410 C.ar    1  UNL1        0.0156
      5 C           7.2117   33.1491    4.9337 C.ar    1  UNL1        0.1328
      6 O           7.2789   33.7717    3.7111 O.3     1  UNL1       -0.5057
      7 C           8.3674   32.7945    5.6472 C.ar    1  UNL1        0.0783
      8 C           8.2453   32.1270    6.8659 C.ar    1  UNL1        0.0783
      9 C           6.9635   31.8902    7.3988 C.ar    1  UNL1        0.1349
     10 O           6.7960   31.2451    8.6009 O.3     1  UNL1       -0.5057
     11 C           5.7997   32.2944    6.7163 C.ar    1  UNL1        0.0376
     12 C           4.4340   32.1799    7.3766 C.3     1  UNL1        0.1454
     13 C           3.3476   31.9873    6.3202 C.3     1  UNL1        0.0687
     14 C           9.4598   31.6880    7.5838 C.2     1  UNL1        0.1988
     15 O           9.3460   31.0852    8.6522 O.2     1  UNL1       -0.2865
     16 C          10.7938   31.9621    7.0168 C.ar    1  UNL1        0.0421
     17 C          11.9458   31.5205    7.6832 C.ar    1  UNL1        0.0033
     18 C          13.2070   31.7874    7.1490 C.ar    1  UNL1        0.0001
     19 C          13.3242   32.4922    5.9507 C.ar    1  UNL1        0.0001
     20 C          12.1790   32.9304    5.2855 C.ar    1  UNL1        0.0033
     21 C          10.9120   32.6618    5.8210 C.ar    1  UNL1        0.0421
     22 C           9.7056   33.1222    5.1167 C.2     1  UNL1        0.1988
     23 O           9.8025   33.7926    4.0855 O.2     1  UNL1       -0.2865
     24 H           3.8047   34.5286    6.6000 H       1  UNL1        0.2108
     25 H           8.2176   34.0019    3.5237 H       1  UNL1        0.2922
     26 H           7.6823   30.9985    8.9540 H       1  UNL1        0.2922
     27 C           2.3952   31.7050    3.3322 C.3     1  UNL1        0.0748
     28 C           2.2443   32.8807    4.2646 C.2     1  UNL1        0.1753
     29 O           1.2413   33.5979    4.2114 O.2     1  UNL1       -0.2936
     30 O           4.2694   33.3983    8.1243 O.3     1  UNL1       -0.3283
     31 C           4.1948   33.2766    9.5481 C.3     1  UNL1        0.2368
     32 C           2.8736   33.7305   10.1474 C.3     1  UNL1        0.0793
     33 C           1.7464   32.8773    9.5723 C.3     1  UNL1        0.0855
     34 N           0.4558   33.3064   10.1555 N.3     1  UNL1       -0.3201
     35 C           2.0188   31.3867    9.8583 C.3     1  UNL1        0.1517
     36 O           1.7292   31.1394   11.2435 O.3     1  UNL1       -0.3806
     37 C           3.4687   30.9827    9.5015 C.3     1  UNL1        0.1458
     38 C           3.8530   29.6471   10.1373 C.3     1  UNL1        0.0348
     39 O           4.4544   31.9285    9.9375 O.3     1  UNL1       -0.3304
     40 H           0.1897   34.1929    9.7216 H       1  UNL1        0.1189
     41 H           0.6005   33.5387   11.1408 H       1  UNL1        0.1189
     42 H           0.8091   31.4509   11.3483 H       1  UNL1        0.2105
@<TRIPOS>BOND
     1    27    28    1
     2    28    29    2
     3     1     3    1
     4     1    13    1
     5     1     2    1
     6     1    28    1
     7     2    24    1
     8     3     4    1
     9     4     5   ar
    10     4    11   ar
    11     5     6    1
    12     5     7   ar
    13     6    25    1
    14     7     8   ar
    15     7    22    1
    16     8     9   ar
    17     8    14    1
    18     9    10    1
    19     9    11   ar
    20    10    26    1
    21    11    12    1
    22    12    13    1
    23    12    30    1
    24    30    31    1
    25    31    32    1
    26    31    39    1
    27    32    33    1
    28    33    34    1
    29    33    35    1
    30    34    40    1
    31    34    41    1
    32    35    36    1
    33    35    37    1
    34    36    42    1
    35    37    38    1
    36    37    39    1
    37    14    15    2
    38    14    16    1
    39    16    17   ar
    40    16    21   ar
    41    17    18   ar
    42    18    19   ar
    43    19    20   ar
    44    20    21   ar
    45    21    22    1
    46    22    23    2



#	Name:			CHEMBL111861
#	Creating user name:	trannguyen
#	Creation time:		Wed Dec  7 14:36:25 2022


#	Modifying user name:	trannguyen
#	Modification time:	Wed Dec  7 14:36:25 2022

@<TRIPOS>MOLECULE
CHEMBL111861
 29 32 0 0 0
SMALL
GASTEIGER

@<TRIPOS>ATOM
      1 C           5.4832   30.9609    3.4515 C.3     1  UNL1        0.0032
      2 C           6.0604   32.1716    4.2174 C.3     1  UNL1        0.0359
      3 C           6.4512   31.6534    5.6324 C.3     1  UNL1        0.0671
      4 C           6.2410   32.6582    6.7419 C.2     1  UNL1        0.1506
      5 O           7.1615   32.9230    7.5135 O.2     1  UNL1       -0.2961
      6 C           4.8658   33.3195    6.8919 C.3     1  UNL1        0.0610
      7 C           4.1109   33.3475    5.5378 C.3     1  UNL1        0.0076
      8 C           3.0097   32.2751    5.3765 C.3     1  UNL1        0.0048
      9 C           3.0074   31.1898    6.4444 C.3     1  UNL1        0.0218
     10 C           2.9255   31.8509    7.7827 C.2     1  UNL1       -0.0464
     11 C           1.8559   31.6660    8.5804 C.2     1  UNL1       -0.0060
     12 C           1.6175   32.4477    9.8351 C.3     1  UNL1        0.1319
     13 O           0.2174   32.6901    9.9382 O.3     1  UNL1       -0.3801
     14 C           2.3466   33.7991    9.8996 C.3     1  UNL1        0.0341
     15 C           3.2591   34.1032    8.7000 C.3     1  UNL1        0.0070
     16 C           4.0117   32.8611    8.1348 C.3     1  UNL1        0.0216
     17 C           4.9074   32.2702    9.2500 C.3     1  UNL1        0.0045
     18 C           5.0679   33.3696    4.3168 C.3     1  UNL1        0.0035
     19 C           5.9581   34.6425    4.2804 C.3     1  UNL1        0.0030
     20 C           7.4008   34.1789    4.0876 C.3     1  UNL1        0.0342
     21 C           7.2750   32.8008    3.4427 C.3     1  UNL1        0.1417
     22 O           8.4688   32.0581    3.6549 O.3     1  UNL1       -0.3797
     23 H          -0.2058   31.8329   10.1134 H       1  UNL1        0.2108
     24 H           8.3025   31.1245    3.4338 H       1  UNL1        0.2108
     25 C           7.0813   33.0102    1.9071 C.2     1  UNL1        0.2038
     26 O           6.2983   33.8340    1.4374 O.2     1  UNL1       -0.2910
     27 C           7.9507   32.1449    0.9844 C.3     1  UNL1        0.2044
     28 O           7.5514   30.7830    0.9439 O.3     1  UNL1       -0.3749
     29 H           7.4378   30.4936    1.8678 H       1  UNL1        0.2110
@<TRIPOS>BOND
     1     2     1    1
     2     2     3    1
     3     2    18    1
     4     2    21    1
     5     3     4    1
     6     4     5    2
     7     4     6    1
     8     6     7    1
     9     6    16    1
    10     7     8    1
    11     7    18    1
    12     8     9    1
    13     9    10    1
    14    10    11    2
    15    10    16    1
    16    11    12    1
    17    12    14    1
    18    12    13    1
    19    13    23    1
    20    14    15    1
    21    15    16    1
    22    16    17    1
    23    18    19    1
    24    19    20    1
    25    20    21    1
    26    21    22    1
    27    21    25    1
    28    22    24    1
    29    25    26    2
    30    25    27    1
    31    27    28    1
    32    28    29    1



#	Name:			CHEMBL112
#	Creating user name:	trannguyen
#	Creation time:		Wed Dec  7 14:36:25 2022


#	Modifying user name:	trannguyen
#	Modification time:	Wed Dec  7 14:36:25 2022

@<TRIPOS>MOLECULE
CHEMBL112
 13 13 0 0 0
SMALL
GASTEIGER

@<TRIPOS>ATOM
      1 C           2.7555   30.0749    9.5395 C.ar    1  UNL1        0.0505
      2 C           1.4744   29.7112    9.9625 C.ar    1  UNL1        0.0178
      3 C           1.2647   28.5084   10.6470 C.ar    1  UNL1        0.0379
      4 C           2.3406   27.6689   10.9066 C.ar    1  UNL1        0.1338
      5 O           2.1804   26.4909   11.5725 O.3     1  UNL1       -0.5055
      6 C           3.6200   28.0108   10.4915 C.ar    1  UNL1        0.0379
      7 C           3.8271   29.2124    9.8092 C.ar    1  UNL1        0.0178
      8 H           1.2424   26.3946   11.8064 H       1  UNL1        0.2922
      9 C           3.3988   33.5838    8.3098 C.3     1  UNL1        0.0949
     10 C           2.9907   32.5616    9.3416 C.2     1  UNL1        0.2266
     11 O           2.6840   32.9078   10.4769 O.2     1  UNL1       -0.2748
     12 N           3.0491   31.2697    8.8508 N.am    1  UNL1       -0.2839
     13 H           3.3448   31.1617    7.8887 H       1  UNL1        0.1549
@<TRIPOS>BOND
     1     9    10    1
     2    10    11    2
     3    10    12   am
     4    12     1    1
     5    12    13    1
     6     1     2   ar
     7     1     7   ar
     8     2     3   ar
     9     3     4   ar
    10     4     5    1
    11     4     6   ar
    12     5     8    1
    13     6     7   ar



#	Name:			CHEMBL1123
#	Creating user name:	trannguyen
#	Creation time:		Wed Dec  7 14:36:25 2022


#	Modifying user name:	trannguyen
#	Modification time:	Wed Dec  7 14:36:25 2022

@<TRIPOS>MOLECULE
CHEMBL1123
 22 23 0 0 0
SMALL
GASTEIGER

@<TRIPOS>ATOM
      1 C           4.2972   32.9628    5.2525 C.3     1  UNL1        0.0896
      2 C           3.8096   31.5196    4.8820 C.3     1  UNL1        0.0106
      3 C           2.2890   31.3362    4.9843 C.3     1  UNL1        0.0005
      4 C           1.5514   32.3677    4.1477 C.3     1  UNL1        0.0000
      5 C           1.9462   33.7824    4.5439 C.3     1  UNL1        0.0005
      6 C           3.4588   33.9859    4.4511 C.3     1  UNL1        0.0106
      7 C           5.8608   33.0737    5.0011 C.3     1  UNL1        0.0100
      8 C           6.6058   31.7342    4.7864 C.3     1  UNL1        0.0005
      9 C           6.6456   31.2142    3.3490 C.3     1  UNL1        0.0000
     10 C           7.0870   32.2690    2.3476 C.3     1  UNL1        0.0000
     11 C           6.3211   33.5759    2.4945 C.3     1  UNL1        0.0000
     12 C           6.3313   34.0881    3.9302 C.3     1  UNL1        0.0005
     13 C           4.0450   33.1088    6.7621 C.2     1  UNL1        0.3159
     14 O           3.6167   34.1317    7.2917 O.2     1  UNL1       -0.2501
     15 O           4.3121   31.9633    7.4431 O.3     1  UNL1       -0.4470
     16 C           4.1970   32.0524    8.8740 C.3     1  UNL1        0.2257
     17 C           4.3409   30.6513    9.4926 C.3     1  UNL1        0.1201
     18 N           3.2379   30.2548   10.3875 N.3     1  UNL1       -0.2696
     19 C           1.0481   30.1478    9.0951 C.3     1  UNL1        0.0188
     20 C           1.9577   30.8994   10.0624 C.3     1  UNL1        0.0722
     21 C           3.1614   28.7862   10.4818 C.3     1  UNL1        0.0722
     22 C           4.4132   28.0663    9.9860 C.3     1  UNL1        0.0188
@<TRIPOS>BOND
     1    19    20    1
     2    20    18    1
     3    18    21    1
     4    18    17    1
     5    21    22    1
     6    17    16    1
     7    16    15    1
     8    15    13    1
     9    13    14    2
    10    13     1    1
    11     1     7    1
    12     1     2    1
    13     1     6    1
    14     7     8    1
    15     7    12    1
    16     8     9    1
    17     9    10    1
    18    10    11    1
    19    11    12    1
    20     2     3    1
    21     3     4    1
    22     4     5    1
    23     5     6    1



#	Name:			CHEMBL113
#	Creating user name:	trannguyen
#	Creation time:		Wed Dec  7 14:36:25 2022


#	Modifying user name:	trannguyen
#	Modification time:	Wed Dec  7 14:36:25 2022

@<TRIPOS>MOLECULE
CHEMBL113
 14 15 0 0 0
SMALL
GASTEIGER

@<TRIPOS>ATOM
      1 C           2.8730   32.3527    7.4174 C.3     1  UNL1        0.1383
      2 N           2.9002   31.3116    8.4256 N.ar    1  UNL1       -0.2454
      3 C           1.6961   30.6892    8.7653 C.ar    1  UNL1        0.2832
      4 O           0.6077   30.9663    8.2709 O.2     1  UNL1       -0.2652
      5 C           1.8560   29.6842    9.7578 C.ar    1  UNL1        0.1528
      6 C           3.0577   29.3679   10.3171 C.ar    1  UNL1        0.1696
      7 N           2.9400   28.3719   11.2391 N.ar    1  UNL1       -0.2063
      8 C           1.6552   28.0760   11.2440 C.ar    1  UNL1        0.1802
      9 N           0.9559   28.8509   10.3575 N.ar    1  UNL1       -0.3021
     10 C          -0.4621   28.7923   10.1081 C.3     1  UNL1        0.1322
     11 N           4.2132   30.0136    9.9509 N.ar    1  UNL1       -0.2628
     12 C           5.4950   29.6854   10.5398 C.3     1  UNL1        0.1366
     13 C           4.1598   31.0167    8.9821 C.ar    1  UNL1        0.3350
     14 O           5.1755   31.6223    8.6253 O.2     1  UNL1       -0.2461
@<TRIPOS>BOND
     1     1     2    1
     2     2     3   ar
     3     2    13   ar
     4     3     4    2
     5     3     5   ar
     6     5     6   ar
     7     5     9   ar
     8     6     7   ar
     9     6    11   ar
    10     7     8   ar
    11     8     9   ar
    12     9    10    1
    13    11    12    1
    14    11    13   ar
    15    13    14    2



#	Name:			CHEMBL1140
#	Creating user name:	trannguyen
#	Creation time:		Wed Dec  7 14:36:25 2022


#	Modifying user name:	trannguyen
#	Modification time:	Wed Dec  7 14:36:25 2022

@<TRIPOS>MOLECULE
CHEMBL1140
 11 11 0 0 0
SMALL
GASTEIGER

@<TRIPOS>ATOM
      1 C           2.7195   28.9519   10.5590 C.ar    1  UNL1        0.0723
      2 C           4.0274   28.5082   10.3520 C.ar    1  UNL1        0.0077
      3 C           4.9783   29.3862    9.8369 C.ar    1  UNL1        0.0208
      4 C           4.5872   30.6850    9.5526 C.ar    1  UNL1        0.0989
      5 N           3.3352   31.1532    9.7548 N.ar    1  UNL1       -0.2422
      6 C           2.4319   30.2772   10.2629 C.ar    1  UNL1        0.1033
      7 N           0.3904   28.3202   10.9295 N.am    1  UNL1       -0.3253
      8 C           1.7120   28.0146   11.1013 C.2     1  UNL1        0.2443
      9 O           2.0446   26.9730   11.6531 O.2     1  UNL1       -0.2703
     10 H          -0.2686   27.6080   11.2210 H       1  UNL1        0.1453
     11 H           0.0587   29.0155   10.2763 H       1  UNL1        0.1453
@<TRIPOS>BOND
     1     7     8   am
     2     7    10    1
     3     7    11    1
     4     8     9    2
     5     8     1    1
     6     1     2   ar
     7     1     6   ar
     8     2     3   ar
     9     3     4   ar
    10     4     5   ar
    11     5     6   ar



#	Name:			CHEMBL1144
#	Creating user name:	trannguyen
#	Creation time:		Wed Dec  7 14:36:24 2022


#	Modifying user name:	trannguyen
#	Modification time:	Wed Dec  7 14:36:24 2022

@<TRIPOS>MOLECULE
CHEMBL1144
 34 35 0 0 0
SMALL
GASTEIGER

@<TRIPOS>ATOM
      1 C           4.1087   31.9491    7.8644 C.3     1  UNL1        0.1755
      2 C           5.2381   32.7259    8.5472 C.3     1  UNL1        0.0777
      3 C           6.3510   31.7582    8.9681 C.3     1  UNL1        0.1358
      4 O           7.1245   31.3510    7.8467 O.3     1  UNL1       -0.3799
      5 C           5.8261   30.5284    9.6363 C.2     1  UNL1       -0.0015
      6 C           4.5326   30.1633    9.6203 C.2     1  UNL1       -0.0213
      7 C           4.0899   29.0804   10.4691 C.2     1  UNL1       -0.0090
      8 C           2.8175   28.9917   10.8717 C.2     1  UNL1       -0.0268
      9 C           1.7403   29.9764   10.4818 C.3     1  UNL1        0.0224
     10 C           0.7301   29.2259    9.5994 C.3     1  UNL1        0.0047
     11 C           2.3254   31.2988    9.8406 C.3     1  UNL1        0.0116
     12 C           3.4512   30.8995    8.8194 C.3     1  UNL1        0.0626
     13 H           6.6812   30.5961    7.4234 H       1  UNL1        0.2108
     14 O           3.1246   32.7922    7.2454 O.3     1  UNL1       -0.4518
     15 C           2.5964   32.3489    6.0687 C.2     1  UNL1        0.3163
     16 O           1.4059   32.3627    5.7829 O.2     1  UNL1       -0.2501
     17 C           3.6867   31.9344    5.0940 C.3     1  UNL1        0.0991
     18 C           3.0866   31.0154    4.0289 C.3     1  UNL1        0.0116
     19 C           5.9018   33.1654    4.7543 C.3     1  UNL1        0.0006
     20 C           4.3977   33.1606    4.5144 C.3     1  UNL1        0.0111
     21 C           1.2080   32.2225    9.3049 C.3     1  UNL1        0.0033
     22 C           0.7472   33.2861   10.3181 C.3     1  UNL1        0.0293
     23 C           1.5887   34.5739   10.3201 C.3     1  UNL1        0.1130
     24 O           2.2647   34.7321    9.0791 O.3     1  UNL1       -0.3844
     25 H           2.7966   33.9304    8.9255 H       1  UNL1        0.2103
     26 C           0.7653   35.8371   10.5941 C.3     1  UNL1        0.0590
     27 C           1.3222   37.1112    9.9365 C.3     1  UNL1        0.1241
     28 O           0.5441   37.3619    8.7497 O.3     1  UNL1       -0.3838
     29 H           0.7564   36.6394    8.1251 H       1  UNL1        0.2104
     30 C           1.1955   38.3336   10.8367 C.3     1  UNL1        0.1385
     31 C           0.8347   39.5768   10.0602 C.2     1  UNL1        0.3163
     32 O          -0.2828   40.0525   10.0286 O.2     1  UNL1       -0.2502
     33 O           1.8648   40.0742    9.3373 O.3     1  UNL1       -0.4801
     34 H           2.7081   39.6138    9.5617 H       1  UNL1        0.2951
@<TRIPOS>BOND
     1    19    20    1
     2    17    18    1
     3    17    15    1
     4    17    20    1
     5    15    16    2
     6    15    14    1
     7     1     2    1
     8     1    12    1
     9     1    14    1
    10     2     3    1
    11     3     5    1
    12     3     4    1
    13     4    13    1
    14     5     6    2
    15     6     7    1
    16     6    12    1
    17     7     8    2
    18     8     9    1
    19     9    10    1
    20     9    11    1
    21    11    21    1
    22    11    12    1
    23    21    22    1
    24    22    23    1
    25    23    24    1
    26    23    26    1
    27    24    25    1
    28    26    27    1
    29    27    28    1
    30    27    30    1
    31    28    29    1
    32    30    31    1
    33    31    32    2
    34    31    33    1
    35    33    34    1






#	Name:			CHEMBL1148
#	Creating user name:	trannguyen
#	Creation time:		Wed Dec  7 14:36:25 2022


#	Modifying user name:	trannguyen
#	Modification time:	Wed Dec  7 14:36:25 2022

@<TRIPOS>MOLECULE
CHEMBL1148
 27 28 0 0 0
SMALL
GASTEIGER

@<TRIPOS>ATOM
      1 C           3.6638   30.3284    9.8180 C.ar    1  UNL1        0.0705
      2 C           4.1435   29.0657   10.1973 C.ar    1  UNL1        0.0366
      3 C           3.2783   27.9840   10.2722 C.ar    1  UNL1        0.1002
      4 N           1.9677   28.0540    9.9763 N.ar    1  UNL1       -0.2408
      5 C           1.4985   29.2792    9.6568 C.ar    1  UNL1        0.1203
      6 C           2.2776   30.4331    9.6244 C.ar    1  UNL1        0.1576
      7 S           1.3811   31.9180    9.3304 S.O2    1  UNL1        0.0795
      8 O          -0.0130   31.6138    9.0734 O.2     1  UNL1       -0.1497
      9 O           1.7586   32.8526   10.3653 O.2     1  UNL1       -0.1497
     10 N           2.0548   32.5427    7.9242 N.am    1  UNL1       -0.1692
     11 C           1.9999   31.9429    6.6702 C.2     1  UNL1        0.3194
     12 O           1.4641   30.8575    6.4873 O.2     1  UNL1       -0.2512
     13 N           2.6209   32.6712    5.6918 N.am    1  UNL1       -0.2894
     14 H           2.4872   33.4478    8.0546 H       1  UNL1        0.1781
     15 H           2.9269   33.6017    5.9260 H       1  UNL1        0.1509
     16 C           2.6486   32.2988    4.2708 C.3     1  UNL1        0.0732
     17 C           3.3125   33.4107    3.4495 C.3     1  UNL1        0.0213
     18 C           3.3960   30.9874    4.0208 C.3     1  UNL1        0.0213
     19 N           4.5807   31.3910    9.6286 N.pl3   1  UNL1       -0.3114
     20 H           4.6634   31.9887   10.4533 H       1  UNL1        0.1523
     21 C           6.5859   32.9761    5.3164 C.3     1  UNL1        0.0311
     22 C           6.6789   32.2009    6.5990 C.ar    1  UNL1       -0.0206
     23 C           7.8773   31.5760    6.9498 C.ar    1  UNL1       -0.0042
     24 C           8.0077   30.9873    8.2038 C.ar    1  UNL1        0.0009
     25 C           6.9327   30.9942    9.1027 C.ar    1  UNL1        0.0146
     26 C           5.6776   31.4989    8.7327 C.ar    1  UNL1        0.0480
     27 C           5.5744   32.1125    7.4711 C.ar    1  UNL1        0.0104
@<TRIPOS>BOND
     1    21    22    1
     2    22    23   ar
     3    22    27   ar
     4    23    24   ar
     5    24    25   ar
     6    25    26   ar
     7    26    19    1
     8    26    27   ar
     9    19     1    1
    10    19    20    1
    11     1     2   ar
    12     1     6   ar
    13     2     3   ar
    14     3     4   ar
    15     4     5   ar
    16     5     6   ar
    17     6     7    1
    18     7     8    2
    19     7     9    2
    20     7    10    1
    21    10    11   am
    22    10    14    1
    23    11    12    2
    24    11    13   am
    25    13    16    1
    26    13    15    1
    27    16    17    1
    28    16    18    1



#	Name:			CHEMBL115769
#	Creating user name:	trannguyen
#	Creation time:		Wed Dec  7 14:36:25 2022


#	Modifying user name:	trannguyen
#	Modification time:	Wed Dec  7 14:36:25 2022

@<TRIPOS>MOLECULE
CHEMBL115769
 28 31 0 0 0
SMALL
GASTEIGER

@<TRIPOS>ATOM
      1 C           6.7023   33.2273    7.1200 C.ar    1  UNL1        0.1443
      2 C           7.9973   33.4462    7.7911 C.ar    1  UNL1        0.0689
      3 C           8.2479   32.9813    9.0404 C.ar    1  UNL1        0.1067
      4 N           9.4596   33.1817    9.6526 N.pl3   1  UNL1       -0.3440
      5 N           7.2588   32.2848    9.6911 N.ar    1  UNL1       -0.3275
      6 H           7.3939   32.0495   10.6619 H       1  UNL1        0.1685
      7 C           6.0380   32.0618    9.1247 C.ar    1  UNL1        0.1443
      8 N           5.0141   31.4369    9.6371 N.ar    1  UNL1       -0.2284
      9 C           4.0153   31.4745    8.6518 C.ar    1  UNL1        0.0830
     10 C           4.3865   32.1214    7.5094 C.ar    1  UNL1        0.0236
     11 C           5.7407   32.5511    7.7590 C.ar    1  UNL1        0.0694
     12 H          10.2108   33.4178    9.0099 H       1  UNL1        0.1437
     13 H           9.7169   32.4109   10.2619 H       1  UNL1        0.1437
     14 C           2.7263   30.8011    8.9567 C.ar    1  UNL1        0.0178
     15 C           1.4765   31.3890    8.7094 C.ar    1  UNL1        0.0038
     16 C           0.2868   30.7411    9.0550 C.ar    1  UNL1        0.0297
     17 C           0.3358   29.4974    9.6649 C.ar    1  UNL1        0.1401
     18 F          -0.8045   28.8832   10.0049 F       1  UNL1       -0.2042
     19 C           1.5525   28.8855    9.9276 C.ar    1  UNL1        0.0297
     20 C           2.7404   29.5371    9.5785 C.ar    1  UNL1        0.0038
     21 C           3.6174   32.3231    6.2808 C.ar    1  UNL1        0.0047
     22 C           3.0857   33.5733    5.9657 C.ar    1  UNL1        0.0207
     23 C           2.3654   33.7029    4.7885 C.ar    1  UNL1        0.0989
     24 N           2.1536   32.6914    3.9187 N.ar    1  UNL1       -0.2423
     25 C           2.6745   31.4909    4.2478 C.ar    1  UNL1        0.0989
     26 C           3.3962   31.2565    5.4064 C.ar    1  UNL1        0.0207
     27 C           6.9331   32.9720    4.7217 C.3     1  UNL1        0.2525
     28 O           6.4776   33.7157    5.8444 O.3     1  UNL1       -0.4712
@<TRIPOS>BOND
     1    27    28    1
     2    28     1    1
     3     1     2   ar
     4     1    11   ar
     5     2     3   ar
     6     3     4    1
     7     3     5   ar
     8     4    12    1
     9     4    13    1
    10     5     6    1
    11     5     7   ar
    12     7     8   ar
    13     7    11    1
    14     8     9   ar
    15     9    14    1
    16     9    10   ar
    17    14    15   ar
    18    14    20   ar
    19    15    16   ar
    20    16    17   ar
    21    17    18    1
    22    17    19   ar
    23    19    20   ar
    24    10    21    1
    25    10    11   ar
    26    21    22   ar
    27    21    26   ar
    28    22    23   ar
    29    23    24   ar
    30    24    25   ar
    31    25    26   ar



#	Name:			CHEMBL1162
#	Creating user name:	trannguyen
#	Creation time:		Wed Dec  7 14:36:25 2022


#	Modifying user name:	trannguyen
#	Modification time:	Wed Dec  7 14:36:25 2022

@<TRIPOS>MOLECULE
CHEMBL1162
 23 26 0 0 0
SMALL
GASTEIGER

@<TRIPOS>ATOM
      1 C           6.8968   34.2424    9.8506 C.3     1  UNL1        0.1420
      2 O           7.9153   34.7244   10.7319 O.3     1  UNL1       -0.3753
      3 C           7.1742   33.0483   10.8535 C.3     1  UNL1        0.0395
      4 C           7.0009   31.8737   10.0260 C.3     1  UNL1        0.0035
      5 C           5.5188   32.0011    9.8261 C.3     1  UNL1        0.0032
      6 C           5.1823   30.8632    8.8471 C.3     1  UNL1        0.0007
      7 C           5.6475   29.5206    9.4791 C.3     1  UNL1        0.0044
      8 C           4.8939   29.2677   10.7719 C.3     1  UNL1        0.0221
      9 C           3.5274   29.0687   10.2522 C.2     1  UNL1       -0.0417
     10 C           3.1648   27.7926   10.0245 C.2     1  UNL1        0.0290
     11 C           2.0216   27.7590   10.9614 C.2     1  UNL1        0.1725
     12 O           2.0817   27.1225   12.0058 O.2     1  UNL1       -0.2914
     13 C           0.8485   28.5938   10.5000 C.3     1  UNL1        0.0695
     14 C           1.2874   29.8094    9.5658 C.3     1  UNL1        0.0121
     15 C           2.7868   30.2993    9.7220 C.3     1  UNL1        0.0188
     16 C           3.6771   30.8760    8.4996 C.3     1  UNL1        0.0037
     17 C           3.5259   32.2744    7.8046 C.3     1  UNL1        0.0004
     18 C           4.3363   33.5875    8.2841 C.3     1  UNL1        0.0032
     19 C           5.3020   33.5401    9.5652 C.3     1  UNL1        0.0333
     20 C           4.4339   34.3094   10.5962 C.3     1  UNL1        0.0033
     21 H           8.0536   35.6333   10.9740 H       1  UNL1        0.2114
     22 C           8.5063   34.4014    7.7943 C.1     1  UNL1       -0.0119
     23 C           7.5407   34.4928    8.6059 C.1     1  UNL1       -0.0526
@<TRIPOS>BOND
     1    22    23    3
     2     1     3    1
     3     1    19    1
     4     1     2    1
     5     1    23    1
     6     2    21    1
     7     3     4    1
     8     4     5    1
     9     5     6    1
    10     5    19    1
    11     6     7    1
    12     6    16    1
    13     7     8    1
    14     8     9    1
    15     9    10    2
    16     9    15    1
    17    10    11    1
    18    11    13    1
    19    11    12    2
    20    13    14    1
    21    14    15    1
    22    15    16    1
    23    16    17    1
    24    17    18    1
    25    18    19    1
    26    19    20    1



#	Name:			CHEMBL1163149
#	Creating user name:	trannguyen
#	Creation time:		Wed Dec  7 14:36:25 2022


#	Modifying user name:	trannguyen
#	Modification time:	Wed Dec  7 14:36:25 2022

@<TRIPOS>MOLECULE
CHEMBL1163149
 64 65 0 0 0
SMALL
GASTEIGER

@<TRIPOS>ATOM
      1 CA          8.3918   33.2248    0.8442 C.3     4  TYR4        0.1530
      2 N           9.2866   34.2359    1.4604 N.am    4  TYR4       -0.2967
      3 C           8.9911   35.5816    1.5042 C.2     3  GLY3        0.2428
      4 O           8.0045   36.0525    0.9309 O.2     3  GLY3       -0.2732
      5 H          10.1260   33.9052    1.9227 H       4  TYR4        0.1499
      6 CA          9.9576   36.4642    2.3390 C.3     3  GLY3        0.1757
      7 N           9.6529   36.8778    3.7067 N.am    3  GLY3       -0.2953
      8 C           9.0658   38.1212    3.9026 C.2     2  PHE2        0.2410
      9 O           8.9168   38.8909    2.9528 O.2     2  PHE2       -0.2733
     10 H           9.7852   36.2610    4.5007 H       3  GLY3        0.1499
     11 CA          8.5143   38.3877    5.3316 C.3     2  PHE2        0.1530
     12 N           7.0422   38.4399    5.2415 N.am    2  PHE2       -0.2969
     13 C           6.3126   39.5848    5.4473 C.2     1  GLY1        0.2387
     14 O           6.8163   40.6728    5.7167 O.2     1  GLY1       -0.2736
     15 H           6.5434   37.5944    4.9844 H       2  PHE2        0.1499
     16 CA          4.7955   39.4127    5.2574 C.3     1  GLY1        0.1515
     17 N           4.1344   39.0551    6.5233 N.3     1  GLY1       -0.3135
     18 H1          4.7878   38.5577    7.1318 H       1  GLY1        0.1193
     19 H2          3.4180   38.3560    6.3092 H       1  GLY1        0.1193
     20 CB          8.9985   37.3899    6.4086 C.3     2  PHE2        0.0553
     21 CG          8.6823   37.7405    7.8509 C.ar    2  PHE2       -0.0200
     22 CD1         8.2034   36.7758    8.7450 C.ar    2  PHE2       -0.0042
     23 CE1         8.0659   37.0805   10.1033 C.ar    2  PHE2       -0.0003
     24 CZ          8.3891   38.3519   10.5773 C.ar    2  PHE2       -0.0000
     25 CE2         8.7867   39.3419    9.6855 C.ar    2  PHE2       -0.0003
     26 CD2         8.9265   39.0375    8.3322 C.ar    2  PHE2       -0.0042
     27 N           7.6910   32.9019    3.2376 N.am    5  VAL5       -0.2970
     28 C           7.6655   32.3190    1.9507 C.2     4  TYR4        0.2410
     29 O           7.2061   31.2075    1.7158 O.2     4  TYR4       -0.2733
     30 H           8.2398   33.7501    3.3346 H       5  VAL5        0.1499
     31 CA          7.1039   32.3192    4.5086 C.3     5  VAL5        0.1485
     32 C           5.6808   32.9234    4.8008 C.2     5  VAL5        0.2406
     33 O           5.4207   34.1047    4.5690 O.2     5  VAL5       -0.2733
     34 N           4.7264   32.0800    5.3472 N.am    6  ALA6       -0.2970
     35 H           4.8534   31.0857    5.2322 H       6  ALA6        0.1499
     36 CA          3.3676   32.5350    5.7260 C.3     6  ALA6        0.1486
     37 CB          2.3482   31.7465    4.8933 C.3     6  ALA6        0.0312
     38 C           3.1375   32.2640    7.2426 C.2     6  ALA6        0.2407
     39 O           3.3545   33.1222    8.1069 O.2     6  ALA6       -0.2733
     40 N           2.5562   31.0390    7.5329 N.am    7  GLU7       -0.2954
     41 H           2.3319   30.4404    6.7387 H       7  GLU7        0.1499
     42 CA          2.3147   30.5725    8.9066 C.3     7  GLU7        0.1718
     43 C           1.3301   31.4513    9.7045 C.2     7  GLU7        0.3318
     44 O           0.2492   31.8348    9.2624 O.2     7  GLU7       -0.2485
     45 OXT         1.6946   31.7071   10.9812 O.3     7  GLU7       -0.4791
     46 HXT         2.5947   31.3939   11.1908 H       7  GLU7        0.2951
     47 CB          3.6268   30.2900    9.6920 C.3     7  GLU7        0.0427
     48 CG          4.1521   28.8537    9.8122 C.3     7  GLU7        0.1116
     49 CD          3.1969   27.8881   10.4796 C.2     7  GLU7        0.3139
     50 OE1         2.8986   26.8348   10.0019 O.2     7  GLU7       -0.2503
     51 OE2         2.6399   28.3517   11.6301 O.3     7  GLU7       -0.4802
     52 HE2         2.8934   29.2493   11.8944 H       7  GLU7        0.2951
     53 CG1         7.7950   31.3207    6.7618 C.3     5  VAL5        0.0022
     54 CB          8.0977   32.4216    5.7310 C.3     5  VAL5        0.0269
     55 CG2         8.1018   33.7038    6.5999 C.3     5  VAL5        0.0022
     56 CB          9.1364   32.4487   -0.2855 C.3     4  TYR4        0.0553
     57 CG          8.9295   33.0023   -1.7066 C.ar    4  TYR4       -0.0198
     58 CD1         7.7955   33.7734   -2.0242 C.ar    4  TYR4       -0.0011
     59 CE1         7.6558   34.3705   -3.2900 C.ar    4  TYR4        0.0363
     60 CZ          8.6516   34.2160   -4.2457 C.ar    4  TYR4        0.1337
     61 OH          8.5200   34.8566   -5.4419 O.3     4  TYR4       -0.5055
     62 CE2         9.7623   33.4358   -3.9746 C.ar    4  TYR4        0.0363
     63 CD2         9.8978   32.8421   -2.7156 C.ar    4  TYR4       -0.0011
     64 HH          9.3546   34.7595   -5.9324 H       4  TYR4        0.2922
@<TRIPOS>BOND
     1    53    54    1
     2    54    55    1
     3    31    27    1
     4    31    32    1
     5    31    54    1
     6    27    28   am
     7    27    30    1
     8    28    29    2
     9     1    56    1
    10     1     2    1
    11     1    28    1
    12    56    57    1
    13    57    58   ar
    14    57    63   ar
    15    58    59   ar
    16    59    60   ar
    17    60    61    1
    18    60    62   ar
    19    61    64    1
    20    62    63   ar
    21     2     3   am
    22     2     5    1
    23     3     4    2
    24     3     6    1
    25     6     7    1
    26     7     8   am
    27     7    10    1
    28     8     9    2
    29    11    20    1
    30    11    12    1
    31    11     8    1
    32    20    21    1
    33    21    22   ar
    34    21    26   ar
    35    22    23   ar
    36    23    24   ar
    37    24    25   ar
    38    25    26   ar
    39    12    13   am
    40    12    15    1
    41    13    14    2
    42    13    16    1
    43    16    17    1
    44    17    18    1
    45    17    19    1
    46    32    33    2
    47    32    34   am
    48    34    36    1
    49    34    35    1
    50    36    37    1
    51    36    38    1
    52    38    39    2
    53    38    40   am
    54    40    42    1
    55    40    41    1
    56    42    47    1
    57    42    43    1
    58    47    48    1
    59    48    49    1
    60    49    50    2
    61    49    51    1
    62    51    52    1
    63    43    44    2
    64    43    45    1
    65    45    46    1






#	Name:			CHEMBL1163150
#	Creating user name:	trannguyen
#	Creation time:		Wed Dec  7 14:36:25 2022


#	Modifying user name:	trannguyen
#	Modification time:	Wed Dec  7 14:36:25 2022

@<TRIPOS>MOLECULE
CHEMBL1163150
 70 71 0 0 0
SMALL
GASTEIGER

@<TRIPOS>ATOM
      1 CA          6.8455   34.7936    9.5314 C.3     4  TYR4        0.1530
      2 N           5.3762   34.8885    9.5386 N.am    4  TYR4       -0.2967
      3 C           4.6226   34.8119   10.6951 C.2     3  GLY3        0.2428
      4 O           5.1118   34.6496   11.8089 O.2     3  GLY3       -0.2732
      5 H           4.9338   35.2812    8.7168 H       4  TYR4        0.1499
      6 CA          3.1059   34.9215   10.4913 C.3     3  GLY3        0.1757
      7 N           2.6737   34.0797    9.3825 N.am    3  GLY3       -0.2953
      8 C           1.8344   32.9990    9.5337 C.2     2  PHE2        0.2410
      9 O           1.3642   32.6797   10.6260 O.2     2  PHE2       -0.2733
     10 H           3.0918   34.2753    8.4765 H       3  GLY3        0.1499
     11 CA          1.5556   32.2039    8.2365 C.3     2  PHE2        0.1530
     12 N           2.2388   32.9110    7.1249 N.am    2  PHE2       -0.2970
     13 C           1.9362   32.6996    5.7953 C.2     1  GLU1        0.2368
     14 O           1.0698   31.9015    5.4417 O.2     1  GLU1       -0.2737
     15 H           2.7638   33.7486    7.3586 H       2  PHE2        0.1499
     16 CA          2.8859   33.4148    4.7770 C.3     1  GLU1        0.1289
     17 N           2.8513   34.8548    5.1077 N.3     1  GLU1       -0.3150
     18 H1          3.5796   35.3613    4.6153 H       1  GLU1        0.1192
     19 H2          3.0432   34.9609    6.1068 H       1  GLU1        0.1192
     20 CB          4.3241   32.8494    4.8341 C.3     1  GLU1        0.0365
     21 CG          4.6082   31.5791    4.0086 C.3     1  GLU1        0.1112
     22 CD          6.0717   31.2925    3.7821 C.2     1  GLU1        0.3139
     23 OE1         6.9889   31.7064    4.4667 O.2     1  GLU1       -0.2503
     24 OE2         6.2940   30.5066    2.6964 O.3     1  GLU1       -0.4802
     25 HE2         5.4918   30.2569    2.2013 H       1  GLU1        0.2951
     26 CB          2.0138   30.7269    8.2429 C.3     2  PHE2        0.0553
     27 CG          3.1311   30.2097    9.1368 C.ar    2  PHE2       -0.0200
     28 CD1         2.9831   28.9827    9.8061 C.ar    2  PHE2       -0.0042
     29 CE1         4.0757   28.3516   10.4172 C.ar    2  PHE2       -0.0003
     30 CZ          5.3353   28.9420   10.3854 C.ar    2  PHE2       -0.0000
     31 CE2         5.4933   30.1813    9.7693 C.ar    2  PHE2       -0.0003
     32 CD2         4.4010   30.8128    9.1508 C.ar    2  PHE2       -0.0042
     33 N           7.6563   37.0601    8.8484 N.am    5  VAL5       -0.2970
     34 C           7.4870   36.1684    9.8968 C.2     4  TYR4        0.2410
     35 O           7.8002   36.4961   11.0381 O.2     4  TYR4       -0.2733
     36 H           7.4138   36.7853    7.9065 H       5  VAL5        0.1499
     37 CA          8.2754   38.3925    9.0736 C.3     5  VAL5        0.1485
     38 C           7.6112   39.4963    8.1933 C.2     5  VAL5        0.2406
     39 O           7.9873   40.6650    8.1919 O.2     5  VAL5       -0.2733
     40 N           6.5163   39.1027    7.4543 N.am    6  ALA6       -0.2970
     41 H           6.2514   38.1278    7.4726 H       6  ALA6        0.1499
     42 CA          5.7919   40.0128    6.5583 C.3     6  ALA6        0.1486
     43 CB          5.6111   39.3520    5.1967 C.3     6  ALA6        0.0312
     44 C           4.4207   40.4451    7.1343 C.2     6  ALA6        0.2407
     45 O           3.6026   39.6358    7.5648 O.2     6  ALA6       -0.2733
     46 N           4.1293   41.7903    7.0039 N.am    7  GLU7       -0.2954
     47 H           4.8713   42.4044    6.6754 H       7  GLU7        0.1499
     48 CA          2.8981   42.3889    7.5693 C.3     7  GLU7        0.1718
     49 C           2.4808   43.6298    6.7527 C.2     7  GLU7        0.3318
     50 O           3.2482   44.5031    6.3704 O.2     7  GLU7       -0.2485
     51 OXT         1.1617   43.6832    6.4590 O.3     7  GLU7       -0.4791
     52 HXT         0.6802   42.9513    6.8891 H       7  GLU7        0.2951
     53 CB          3.1207   42.7453    9.0469 C.3     7  GLU7        0.0427
     54 CG          1.8274   43.1337    9.7624 C.3     7  GLU7        0.1116
     55 CD          1.1853   42.0176   10.5297 C.2     7  GLU7        0.3139
     56 OE1         0.0991   42.1130   11.1214 O.2     7  GLU7       -0.2503
     57 OE2         1.8768   40.8888   10.5874 O.3     7  GLU7       -0.4802
     58 HE2         1.4442   40.3541   11.2845 H       7  GLU7        0.2951
     59 CG1        10.4028   37.0731    8.3818 C.3     5  VAL5        0.0022
     60 CB          9.8341   38.3451    9.0297 C.3     5  VAL5        0.0269
     61 CG2        10.5287   38.5427   10.3785 C.3     5  VAL5        0.0022
     62 CB          7.4505   34.2147    8.2334 C.3     4  TYR4        0.0553
     63 CG          8.4019   33.0616    8.4881 C.ar    4  TYR4       -0.0198
     64 CD1         9.4472   33.1764    9.4167 C.ar    4  TYR4       -0.0011
     65 CE1        10.2950   32.0926    9.6705 C.ar    4  TYR4        0.0363
     66 CZ         10.0949   30.8912    8.9986 C.ar    4  TYR4        0.1337
     67 OH         10.8937   29.8095    9.2204 O.3     4  TYR4       -0.5055
     68 CE2         9.0675   30.7581    8.0747 C.ar    4  TYR4        0.0363
     69 CD2         8.2278   31.8422    7.8151 C.ar    4  TYR4       -0.0011
     70 HH         11.5767   30.0495    9.8673 H       4  TYR4        0.2922
@<TRIPOS>BOND
     1    59    60    1
     2    60    61    1
     3    37    33    1
     4    37    38    1
     5    37    60    1
     6    33    34   am
     7    33    36    1
     8    34    35    2
     9     1    62    1
    10     1     2    1
    11     1    34    1
    12    62    63    1
    13    63    64   ar
    14    63    69   ar
    15    64    65   ar
    16    65    66   ar
    17    66    67    1
    18    66    68   ar
    19    67    70    1
    20    68    69   ar
    21     2     3   am
    22     2     5    1
    23     3     4    2
    24     3     6    1
    25     6     7    1
    26     7     8   am
    27     7    10    1
    28     8     9    2
    29    11    26    1
    30    11    12    1
    31    11     8    1
    32    26    27    1
    33    27    28   ar
    34    27    32   ar
    35    28    29   ar
    36    29    30   ar
    37    30    31   ar
    38    31    32   ar
    39    12    13   am
    40    12    15    1
    41    13    14    2
    42    13    16    1
    43    16    17    1
    44    16    20    1
    45    17    18    1
    46    17    19    1
    47    20    21    1
    48    21    22    1
    49    22    23    2
    50    22    24    1
    51    24    25    1
    52    38    39    2
    53    38    40   am
    54    40    42    1
    55    40    41    1
    56    42    43    1
    57    42    44    1
    58    44    45    2
    59    44    46   am
    60    46    48    1
    61    46    47    1
    62    48    53    1
    63    48    49    1
    64    53    54    1
    65    54    55    1
    66    55    56    2
    67    55    57    1
    68    57    58    1
    69    49    50    2
    70    49    51    1
    71    51    52    1






#	Name:			CHEMBL1163723
#	Creating user name:	trannguyen
#	Creation time:		Wed Dec  7 14:36:25 2022


#	Modifying user name:	trannguyen
#	Modification time:	Wed Dec  7 14:36:25 2022

@<TRIPOS>MOLECULE
CHEMBL1163723
 59 60 0 0 0
SMALL
GASTEIGER

@<TRIPOS>ATOM
      1 CA          3.4673   32.8813    8.3386 C.3     3  TYR3        0.1530
      2 N           5.6536   33.5573    9.2890 N.am    4  VAL4       -0.2970
      3 C           4.2979   33.5515    9.4532 C.2     3  TYR3        0.2410
      4 O           3.8259   34.1044   10.4438 O.2     3  TYR3       -0.2733
      5 H           6.0626   32.9066    8.6174 H       4  VAL4        0.1499
      6 CA          6.4991   34.1370   10.3326 C.3     4  VAL4        0.1485
      7 C           7.0425   35.5666    9.8284 C.2     4  VAL4        0.2406
      8 O           7.3524   35.7351    8.6433 O.2     4  VAL4       -0.2733
      9 N           7.5426   36.4963   10.7868 N.am    5  ALA5       -0.2970
     10 H           7.4371   36.2710   11.7727 H       5  ALA5        0.1499
     11 CA          8.3291   37.7728   10.4501 C.3     5  ALA5        0.1486
     12 CB          8.5677   38.7927   11.6041 C.3     5  ALA5        0.0312
     13 C           9.7487   37.4932    9.8801 C.2     5  ALA5        0.2407
     14 O          10.6980   37.0858   10.5441 O.2     5  ALA5       -0.2733
     15 N           9.9198   37.8499    8.5735 N.am    6  GLU6       -0.2954
     16 H           9.0922   38.1365    8.0733 H       6  GLU6        0.1499
     17 CA         11.1389   37.5820    7.8380 C.3     6  GLU6        0.1718
     18 C          12.0824   38.7756    7.9648 C.2     6  GLU6        0.3318
     19 O          12.1252   39.6859    7.1399 O.2     6  GLU6       -0.2485
     20 OXT        12.8677   38.8007    9.0593 O.3     6  GLU6       -0.4791
     21 HXT        12.8145   37.9861    9.6140 H       6  GLU6        0.2951
     22 CB         10.8068   37.3022    6.3676 C.3     6  GLU6        0.0427
     23 CG          9.3733   36.8158    6.1490 C.3     6  GLU6        0.1116
     24 CD          8.5909   37.7841    5.2776 C.2     6  GLU6        0.3139
     25 OE1         8.9872   38.8507    4.9340 O.2     6  GLU6       -0.2503
     26 OE2         7.3851   37.2753    4.8915 O.3     6  GLU6       -0.4802
     27 HE2         7.2107   36.3707    5.1806 H       6  GLU6        0.2951
     28 CG1         8.8600   33.1113   10.3588 C.3     4  VAL4        0.0022
     29 CB          7.4055   32.9811   10.9079 C.3     4  VAL4        0.0269
     30 CG2         6.9791   31.5321   10.6470 C.3     4  VAL4        0.0022
     31 N           3.7886   33.5393    7.0509 N.am    3  TYR3       -0.2967
     32 C           3.0665   33.3534    5.8946 C.2     2  GLY2        0.2428
     33 O           2.1120   32.5774    5.8318 O.2     2  GLY2       -0.2732
     34 H           4.4307   34.3245    7.0804 H       3  TYR3        0.1499
     35 CA          3.5809   34.1326    4.6759 C.3     2  GLY2        0.1757
     36 N           5.0229   34.2662    4.6857 N.am    2  GLY2       -0.2956
     37 C           5.8073   33.2840    4.1163 C.2     1  PHE1        0.2372
     38 O           5.3249   32.2636    3.6300 O.2     1  PHE1       -0.2737
     39 H           5.4632   34.9846    5.2497 H       2  GLY2        0.1499
     40 CA          7.3272   33.5507    4.1739 C.3     1  PHE1        0.1327
     41 N           7.6216   34.7582    3.3584 N.3     1  PHE1       -0.3148
     42 H1          8.6054   35.0085    3.4710 H       1  PHE1        0.1192
     43 H2          7.1071   35.5462    3.7648 H       1  PHE1        0.1192
     44 CB          7.7819   33.7805    5.6271 C.3     1  PHE1        0.0512
     45 CG          8.4337   32.6050    6.3224 C.ar    1  PHE1       -0.0203
     46 CD1         9.8189   32.5889    6.5225 C.ar    1  PHE1       -0.0042
     47 CE1        10.4168   31.5630    7.2572 C.ar    1  PHE1       -0.0003
     48 CZ          9.6475   30.5097    7.7480 C.ar    1  PHE1       -0.0000
     49 CE2         8.2706   30.5029    7.5409 C.ar    1  PHE1       -0.0003
     50 CD2         7.6640   31.5562    6.8516 C.ar    1  PHE1       -0.0042
     51 CB          3.7622   31.3636    8.2628 C.3     3  TYR3        0.0553
     52 CG          2.8097   30.4694    9.0381 C.ar    3  TYR3       -0.0198
     53 CD1         3.2723   29.5972   10.0295 C.ar    3  TYR3       -0.0011
     54 CE1         2.3783   28.7605   10.7119 C.ar    3  TYR3        0.0363
     55 CZ          1.0274   28.7656   10.3759 C.ar    3  TYR3        0.1337
     56 OH          0.1272   27.9528   10.9948 O.3     3  TYR3       -0.5055
     57 CE2         0.5483   29.6159    9.3960 C.ar    3  TYR3        0.0363
     58 CD2         1.4294   30.4916    8.7672 C.ar    3  TYR3       -0.0011
     59 HH          0.5762   27.4702   11.7070 H       3  TYR3        0.2922
@<TRIPOS>BOND
     1    28    29    1
     2    29    30    1
     3     6     2    1
     4     6     7    1
     5     6    29    1
     6     2     3   am
     7     2     5    1
     8     3     4    2
     9     1    51    1
    10     1    31    1
    11     1     3    1
    12    51    52    1
    13    52    53   ar
    14    52    58   ar
    15    53    54   ar
    16    54    55   ar
    17    55    56    1
    18    55    57   ar
    19    56    59    1
    20    57    58   ar
    21    31    32   am
    22    31    34    1
    23    32    33    2
    24    32    35    1
    25    35    36    1
    26    36    37   am
    27    36    39    1
    28    37    38    2
    29    37    40    1
    30    40    41    1
    31    40    44    1
    32    41    42    1
    33    41    43    1
    34    44    45    1
    35    45    46   ar
    36    45    50   ar
    37    46    47   ar
    38    47    48   ar
    39    48    49   ar
    40    49    50   ar
    41     7     8    2
    42     7     9   am
    43     9    11    1
    44     9    10    1
    45    11    12    1
    46    11    13    1
    47    13    14    2
    48    13    15   am
    49    15    17    1
    50    15    16    1
    51    17    22    1
    52    17    18    1
    53    22    23    1
    54    23    24    1
    55    24    25    2
    56    24    26    1
    57    26    27    1
    58    18    19    2
    59    18    20    1
    60    20    21    1






#	Name:			CHEMBL1163804
#	Creating user name:	trannguyen
#	Creation time:		Wed Dec  7 14:36:24 2022


#	Modifying user name:	trannguyen
#	Modification time:	Wed Dec  7 14:36:24 2022

@<TRIPOS>MOLECULE
CHEMBL1163804
 69 70 0 0 0
SMALL
GASTEIGER

@<TRIPOS>ATOM
      1 CA          9.0694   36.1255    9.3020 C.3     4  TYR4        0.1530
      2 N           8.1572   34.9793    9.6087 N.am    4  TYR4       -0.2967
      3 C           7.2956   34.9659   10.7008 C.2     3  GLY3        0.2428
      4 O           7.1106   35.9642   11.4072 O.2     3  GLY3       -0.2732
      5 H           8.1283   34.1988    8.9642 H       4  TYR4        0.1499
      6 CA          6.4819   33.6639   10.9304 C.3     3  GLY3        0.1757
      7 N           5.7128   33.1758    9.7699 N.am    3  GLY3       -0.2953
      8 C           5.4339   31.8469    9.5932 C.2     2  PHE2        0.2410
      9 O           5.9161   31.0349   10.3985 O.2     2  PHE2       -0.2733
     10 H           5.3680   33.8402    9.0845 H       3  GLY3        0.1499
     11 CA          4.5729   31.4399    8.3467 C.3     2  PHE2        0.1530
     12 N           3.3954   30.6443    8.8082 N.am    2  PHE2       -0.2970
     13 C           2.5114   31.0656    9.7854 C.2     1  ASP1        0.2374
     14 O           2.5761   32.1805   10.3063 O.2     1  ASP1       -0.2736
     15 H           3.4098   29.6514    8.6025 H       2  PHE2        0.1499
     16 CA          1.4355   30.0237   10.2130 C.3     1  ASP1        0.1395
     17 N           0.1521   30.3773    9.5606 N.3     1  ASP1       -0.3146
     18 H1          0.2736   30.3320    8.5454 H       1  ASP1        0.1192
     19 H2         -0.5534   29.6707    9.7821 H       1  ASP1        0.1192
     20 CB          1.8960   28.6062    9.8330 C.3     1  ASP1        0.1341
     21 CG          2.0531   27.7228   11.0286 C.2     1  ASP1        0.3157
     22 OD1         2.0732   28.0773   12.2077 O.2     1  ASP1       -0.2502
     23 OD2         2.2008   26.4286   10.7055 O.3     1  ASP1       -0.4801
     24 HD2         2.2995   25.9466   11.5561 H       1  ASP1        0.2951
     25 CB          4.1103   32.6776    7.5207 C.3     2  PHE2        0.0553
     26 CG          3.3811   32.3707    6.2240 C.ar    2  PHE2       -0.0200
     27 CD1         2.0879   32.8484    5.9910 C.ar    2  PHE2       -0.0042
     28 CE1         1.4204   32.5313    4.8023 C.ar    2  PHE2       -0.0003
     29 CZ          2.0251   31.7168    3.8442 C.ar    2  PHE2       -0.0000
     30 CE2         3.3070   31.2317    4.0632 C.ar    2  PHE2       -0.0003
     31 CD2         3.9858   31.5836    5.2283 C.ar    2  PHE2       -0.0042
     32 N           9.3324   37.2700    7.0431 N.am    5  VAL5       -0.2970
     33 C           8.5122   37.0191    8.1242 C.2     4  TYR4        0.2410
     34 O           7.3515   37.4427    8.1256 O.2     4  TYR4       -0.2733
     35 H          10.2412   36.8314    7.0075 H       5  VAL5        0.1499
     36 CA          8.9621   38.1760    5.9074 C.3     5  VAL5        0.1485
     37 C           8.3543   37.2820    4.7881 C.2     5  VAL5        0.2406
     38 O           7.1726   36.9398    4.7913 O.2     5  VAL5       -0.2733
     39 N           9.2211   37.0061    3.7277 N.am    6  ALA6       -0.2970
     40 H          10.2046   36.9773    3.9721 H       6  ALA6        0.1499
     41 CA          8.7950   36.1801    2.5846 C.3     6  ALA6        0.1486
     42 CB          9.4311   36.6296    1.2643 C.3     6  ALA6        0.0312
     43 C           9.0645   34.6595    2.7764 C.2     6  ALA6        0.2407
     44 O          10.0642   34.2629    3.3755 O.2     6  ALA6       -0.2733
     45 N           8.0799   33.7980    2.3320 N.am    7  GLU7       -0.2954
     46 H           7.2062   34.2141    2.0302 H       7  GLU7        0.1499
     47 CA          8.0838   32.3341    2.5851 C.3     7  GLU7        0.1718
     48 C           7.7411   31.5656    1.2472 C.2     7  GLU7        0.3318
     49 O           7.7357   32.0598    0.1531 O.2     7  GLU7       -0.2485
     50 OXT         7.4142   30.2954    1.4611 O.3     7  GLU7       -0.4791
     51 HXT         7.1425   30.0109    0.5616 H       7  GLU7        0.2951
     52 CB          7.0938   32.0325    3.7362 C.3     7  GLU7        0.0427
     53 CG          7.6497   32.2372    5.1458 C.3     7  GLU7        0.1116
     54 CD          7.0938   33.4946    5.7713 C.2     7  GLU7        0.3139
     55 OE1         7.2989   33.8318    6.9322 O.2     7  GLU7       -0.2503
     56 OE2         6.3123   34.2179    4.9390 O.3     7  GLU7       -0.4802
     57 HE2         6.2159   33.8555    4.0397 H       7  GLU7        0.2951
     58 CG1        11.4120   38.5189    6.2674 C.3     5  VAL5        0.0022
     59 CB         10.1963   39.0462    5.4966 C.3     5  VAL5        0.0269
     60 CG2        10.1911   40.5508    5.7680 C.3     5  VAL5        0.0022
     61 CB         10.5413   35.6390    9.0932 C.3     4  TYR4        0.0553
     62 CG         10.7416   34.1599    8.8241 C.ar    4  TYR4       -0.0198
     63 CD1        10.6863   33.6077    7.5395 C.ar    4  TYR4       -0.0011
     64 CE1        10.7424   32.2145    7.3473 C.ar    4  TYR4        0.0363
     65 CZ         10.8807   31.3701    8.4374 C.ar    4  TYR4        0.1337
     66 OH         10.8136   30.0145    8.3442 O.3     4  TYR4       -0.5055
     67 CE2        11.0800   31.9060    9.6894 C.ar    4  TYR4        0.0363
     68 CD2        10.9940   33.2881    9.8839 C.ar    4  TYR4       -0.0011
     69 HH         10.7421   29.7759    7.4069 H       4  TYR4        0.2922
@<TRIPOS>BOND
     1    58    59    1
     2    59    60    1
     3    36    32    1
     4    36    37    1
     5    36    59    1
     6    32    33   am
     7    32    35    1
     8    33    34    2
     9     1    61    1
    10     1     2    1
    11     1    33    1
    12    61    62    1
    13    62    63   ar
    14    62    68   ar
    15    63    64   ar
    16    64    65   ar
    17    65    66    1
    18    65    67   ar
    19    66    69    1
    20    67    68   ar
    21     2     3   am
    22     2     5    1
    23     3     4    2
    24     3     6    1
    25     6     7    1
    26     7     8   am
    27     7    10    1
    28     8     9    2
    29    11    25    1
    30    11    12    1
    31    11     8    1
    32    25    26    1
    33    26    27   ar
    34    26    31   ar
    35    27    28   ar
    36    28    29   ar
    37    29    30   ar
    38    30    31   ar
    39    12    13   am
    40    12    15    1
    41    13    14    2
    42    13    16    1
    43    16    17    1
    44    16    20    1
    45    17    18    1
    46    17    19    1
    47    20    21    1
    48    21    22    2
    49    21    23    1
    50    23    24    1
    51    37    38    2
    52    37    39   am
    53    39    41    1
    54    39    40    1
    55    41    42    1
    56    41    43    1
    57    43    44    2
    58    43    45   am
    59    45    47    1
    60    45    46    1
    61    47    52    1
    62    47    48    1
    63    52    53    1
    64    53    54    1
    65    54    55    2
    66    54    56    1
    67    56    57    1
    68    48    49    2
    69    48    50    1
    70    50    51    1






#	Name:			CHEMBL1165012
#	Creating user name:	trannguyen
#	Creation time:		Wed Dec  7 14:36:25 2022


#	Modifying user name:	trannguyen
#	Modification time:	Wed Dec  7 14:36:25 2022

@<TRIPOS>MOLECULE
CHEMBL1165012
 43 44 0 0 0
SMALL
GASTEIGER

@<TRIPOS>ATOM
      1 C           1.4123   32.5538    9.3310 C.2     2  UNK2        0.2442
      2 O           0.2698   32.4885    9.7960 O.2     2  UNK2       -0.2731
      3 N           2.1685   33.7095    9.4773 N.am    3  PRO3       -0.2717
      4 CD          3.5389   33.9094    9.0481 C.3     3  PRO3        0.0939
      5 CG          4.2634   34.2023   10.3403 C.3     3  PRO3        0.0237
      6 CB          3.2519   35.0280   11.1372 C.3     3  PRO3        0.0310
      7 CA          1.8663   34.6105   10.6039 C.3     3  PRO3        0.1518
      8 C           1.0025   35.8411   10.2356 C.2     3  PRO3        0.2409
      9 O          -0.1535   35.9493   10.6437 O.2     3  PRO3       -0.2733
     10 N           1.6251   36.8708    9.5620 N.am    4  GLY4       -0.2953
     11 H           2.6230   36.8290    9.4073 H       4  GLY4        0.1499
     12 CA          0.9150   38.0970    9.2102 C.3     4  GLY4        0.1757
     13 C           1.2222   39.2916   10.1227 C.2     4  GLY4        0.2429
     14 O           1.4861   39.1431   11.3157 O.2     4  GLY4       -0.2732
     15 N           1.0996   40.5423    9.5583 N.am    5  GLY5       -0.2952
     16 H           0.6090   40.6326    8.6696 H       5  GLY5        0.1499
     17 CA          1.3329   41.7253   10.3671 C.3     5  GLY5        0.1757
     18 C           1.6550   42.9511    9.5150 C.2     5  GLY5        0.2429
     19 O           1.5370   44.1077    9.9157 O.2     5  GLY5       -0.2732
     20 N           1.9861   42.6524    8.2077 N.am    6  GLY6       -0.2936
     21 H           2.1993   41.6916    7.9576 H       6  GLY6        0.1500
     22 CA          2.2562   43.6842    7.1989 C.3     6  GLY6        0.2004
     23 C           1.0096   44.4765    6.8266 C.2     6  GLY6        0.3341
     24 O           0.8936   45.6680    6.9509 O.2     6  GLY6       -0.2484
     25 OXT         0.0331   43.6864    6.3005 O.3     6  GLY6       -0.4790
     26 HXT         0.2652   42.7549    6.3704 H       6  GLY6        0.2951
     27 C           2.0289   31.3537    8.5656 C.3     2  UNK2        0.1532
     28 C           2.3582   29.5594   10.2576 C.2     1  GLY1        0.2387
     29 O           3.4064   30.0475   10.6779 O.2     1  GLY1       -0.2736
     30 N           1.6212   30.1191    9.2385 N.am    2  UNK2       -0.2969
     31 H           0.6585   29.8251    9.1154 H       2  UNK2        0.1499
     32 N           0.3133   28.3181   10.8325 N.3     1  GLY1       -0.3135
     33 CA          1.7786   28.2529   10.8154 C.3     1  GLY1        0.1515
     34 H1         -0.0660   27.4255   11.1381 H       1  GLY1        0.1193
     35 H2         -0.0112   28.4665    9.8747 H       1  GLY1        0.1193
     36 C           1.5838   31.3485    7.0957 C.3     2  UNK2        0.0553
     37 C           2.7072   31.5287    6.0941 C.ar    2  UNK2       -0.0199
     38 C           3.8835   32.2007    6.4635 C.ar    2  UNK2       -0.0019
     39 C           4.9322   32.3632    5.5575 C.ar    2  UNK2        0.0293
     40 C           4.8098   31.8516    4.2747 C.ar    2  UNK2        0.1401
     41 F           5.8164   32.0027    3.4037 F       2  UNK2       -0.2042
     42 C           3.6578   31.1808    3.8837 C.ar    2  UNK2        0.0293
     43 C           2.6073   31.0177    4.7910 C.ar    2  UNK2       -0.0019
@<TRIPOS>BOND
     1    32    33    1
     2    32    34    1
     3    32    35    1
     4    33    28    1
     5    28    29    2
     6    28    30   am
     7    30    27    1
     8    30    31    1
     9    27    36    1
    10    27     1    1
    11    36    37    1
    12    37    38   ar
    13    37    43   ar
    14    38    39   ar
    15    39    40   ar
    16    40    41    1
    17    40    42   ar
    18    42    43   ar
    19     1     2    2
    20     1     3   am
    21     3     4    1
    22     3     7    1
    23     4     5    1
    24     5     6    1
    25     6     7    1
    26     7     8    1
    27     8     9    2
    28     8    10   am
    29    10    12    1
    30    10    11    1
    31    12    13    1
    32    13    14    2
    33    13    15   am
    34    15    17    1
    35    15    16    1
    36    17    18    1
    37    18    19    2
    38    18    20   am
    39    20    22    1
    40    20    21    1
    41    22    23    1
    42    23    24    2
    43    23    25    1
    44    25    26    1



#	Name:			CHEMBL1165024
#	Creating user name:	trannguyen
#	Creation time:		Wed Dec  7 14:36:25 2022


#	Modifying user name:	trannguyen
#	Modification time:	Wed Dec  7 14:36:25 2022

@<TRIPOS>MOLECULE
CHEMBL1165024
 68 69 0 0 0
SMALL
GASTEIGER

@<TRIPOS>ATOM
      1 CA          7.2512   32.3635    5.3500 C.3     4  TYR4        0.1530
      2 N           6.6914   31.4301    4.3556 N.am    4  TYR4       -0.2967
      3 C           5.4165   31.2973    3.8788 C.2     3  GLY3        0.2428
      4 O           5.2053   30.4174    3.0467 O.2     3  GLY3       -0.2732
      5 H           7.2968   30.6792    4.0364 H       4  TYR4        0.1499
      6 CA          4.3311   32.2526    4.3833 C.3     3  GLY3        0.1757
      7 N           4.0739   32.0854    5.8026 N.am    3  GLY3       -0.2953
      8 C           3.5650   33.1322    6.5411 C.2     2  PHE2        0.2410
      9 O           3.3405   34.2147    6.0122 O.2     2  PHE2       -0.2733
     10 H           4.6273   31.4225    6.3319 H       3  GLY3        0.1499
     11 CA          3.2646   32.7775    8.0215 C.3     2  PHE2        0.1530
     12 N           2.7030   33.9938    8.6628 N.am    2  PHE2       -0.2969
     13 C           2.7113   34.3723    9.9749 C.2     1  THR1        0.2392
     14 O           3.4057   33.8113   10.8357 O.2     1  THR1       -0.2736
     15 H           2.1399   34.5671    8.0106 H       2  PHE2        0.1499
     16 CA          1.7799   35.6102   10.3137 C.3     1  THR1        0.1554
     17 N           1.7913   36.6295    9.2226 N.3     1  THR1       -0.3131
     18 H1          2.6854   37.1190    9.2290 H       1  THR1        0.1193
     19 H2          1.1037   37.3585    9.4560 H       1  THR1        0.1193
     20 CB          0.3220   35.2136   10.6600 C.3     1  THR1        0.1335
     21 CG2        -0.7211   36.2706   10.3180 C.3     1  THR1        0.0337
     22 OG1        -0.0324   33.9965   10.0127 O.3     1  THR1       -0.3826
     23 HG1        -0.0433   33.2918   10.6835 H       1  THR1        0.2104
     24 CB          2.2688   31.5898    8.1399 C.3     2  PHE2        0.0553
     25 CG          2.7070   30.4372    9.0227 C.ar    2  PHE2       -0.0200
     26 CD1         1.7858   29.4623    9.4446 C.ar    2  PHE2       -0.0042
     27 CE1         2.1985   28.3434   10.1685 C.ar    2  PHE2       -0.0003
     28 CZ          3.5343   28.2097   10.5284 C.ar    2  PHE2       -0.0000
     29 CE2         4.4523   29.1932   10.1607 C.ar    2  PHE2       -0.0003
     30 CD2         4.0437   30.2989    9.4083 C.ar    2  PHE2       -0.0042
     31 N           7.8516   34.1859    3.6795 N.am    5  VAL5       -0.2970
     32 C           8.3047   33.2374    4.5928 C.2     4  TYR4        0.2410
     33 O           9.5010   33.1475    4.8366 O.2     4  TYR4       -0.2733
     34 H           6.8968   34.4748    3.8543 H       5  VAL5        0.1499
     35 CA          8.7746   35.2258    3.1378 C.3     5  VAL5        0.1485
     36 C           8.9786   36.5005    4.0471 C.2     5  VAL5        0.2406
     37 O          10.0731   37.0777    4.0871 O.2     5  VAL5       -0.2733
     38 N           7.9959   36.8732    4.9521 N.am    6  ALA6       -0.2970
     39 H           7.0575   36.8454    4.5708 H       6  ALA6        0.1499
     40 CA          8.2628   38.0588    5.7983 C.3     6  ALA6        0.1486
     41 CB          7.1940   39.1341    5.6493 C.3     6  ALA6        0.0312
     42 C           8.4172   37.8081    7.3371 C.2     6  ALA6        0.2407
     43 O           7.5678   38.0133    8.1480 O.2     6  ALA6       -0.2733
     44 N           9.6852   37.3332    7.6372 N.am    7  GLU7       -0.2954
     45 H          10.1105   36.7870    6.8856 H       7  GLU7        0.1499
     46 CA         10.1720   37.0446    8.9827 C.3     7  GLU7        0.1718
     47 C          11.7061   37.0786    8.8770 C.2     7  GLU7        0.3318
     48 O          12.4786   36.5211    9.6335 O.2     7  GLU7       -0.2485
     49 OXT        12.1625   37.7925    7.8051 O.3     7  GLU7       -0.4791
     50 HXT        11.4450   38.2497    7.3294 H       7  GLU7        0.2951
     51 CB          9.6869   35.6861    9.5121 C.3     7  GLU7        0.0427
     52 CG          9.4049   35.6853   11.0138 C.3     7  GLU7        0.1116
     53 CD          8.3931   36.7393   11.4093 C.2     7  GLU7        0.3139
     54 OE1         8.6382   37.6750   12.1432 O.2     7  GLU7       -0.2503
     55 OE2         7.1682   36.5310   10.8574 O.3     7  GLU7       -0.4802
     56 HE2         7.1013   35.7237   10.3198 H       7  GLU7        0.2951
     57 CG1         7.5740   35.0860    0.7216 C.3     5  VAL5        0.0022
     58 CB          8.6234   35.7332    1.6303 C.3     5  VAL5        0.0269
     59 CG2         9.9266   35.9012    0.8384 C.3     5  VAL5        0.0022
     60 CB          7.8573   31.5994    6.5632 C.3     4  TYR4        0.0553
     61 CG          7.4392   32.0563    7.9526 C.ar    4  TYR4       -0.0198
     62 CD1         7.6625   31.2543    9.0800 C.ar    4  TYR4       -0.0011
     63 CE1         7.3476   31.7225   10.3639 C.ar    4  TYR4        0.0363
     64 CZ          6.7691   32.9778   10.5233 C.ar    4  TYR4        0.1337
     65 OH          6.4609   33.4743   11.7545 O.3     4  TYR4       -0.5055
     66 CE2         6.4974   33.7704    9.4216 C.ar    4  TYR4        0.0363
     67 CD2         6.8585   33.3227    8.1497 C.ar    4  TYR4       -0.0011
     68 HH          6.7713   32.8486   12.4284 H       4  TYR4        0.2922
@<TRIPOS>BOND
     1    57    58    1
     2    58    59    1
     3    35    31    1
     4    35    36    1
     5    35    58    1
     6    31    32   am
     7    31    34    1
     8    32    33    2
     9     1    60    1
    10     1     2    1
    11     1    32    1
    12    60    61    1
    13    61    62   ar
    14    61    67   ar
    15    62    63   ar
    16    63    64   ar
    17    64    65    1
    18    64    66   ar
    19    65    68    1
    20    66    67   ar
    21     2     3   am
    22     2     5    1
    23     3     4    2
    24     3     6    1
    25     6     7    1
    26     7     8   am
    27     7    10    1
    28     8     9    2
    29    11    24    1
    30    11    12    1
    31    11     8    1
    32    24    25    1
    33    25    26   ar
    34    25    30   ar
    35    26    27   ar
    36    27    28   ar
    37    28    29   ar
    38    29    30   ar
    39    12    13   am
    40    12    15    1
    41    13    14    2
    42    13    16    1
    43    16    17    1
    44    16    20    1
    45    17    18    1
    46    17    19    1
    47    20    21    1
    48    20    22    1
    49    22    23    1
    50    36    37    2
    51    36    38   am
    52    38    40    1
    53    38    39    1
    54    40    41    1
    55    40    42    1
    56    42    43    2
    57    42    44   am
    58    44    46    1
    59    44    45    1
    60    46    51    1
    61    46    47    1
    62    51    52    1
    63    52    53    1
    64    53    54    2
    65    53    55    1
    66    55    56    1
    67    47    48    2
    68    47    49    1
    69    49    50    1






#	Name:			CHEMBL1165099
#	Creating user name:	trannguyen
#	Creation time:		Wed Dec  7 14:36:25 2022


#	Modifying user name:	trannguyen
#	Modification time:	Wed Dec  7 14:36:25 2022

@<TRIPOS>MOLECULE
CHEMBL1165099
 49 50 0 0 0
SMALL
GASTEIGER

@<TRIPOS>ATOM
      1 C           1.3142   35.7766   10.1435 C.2     3  PRO3        0.2409
      2 O           0.0986   35.9387   10.2649 O.2     3  PRO3       -0.2733
      3 N           2.1115   36.7335    9.5320 N.am    4  GLU4       -0.2970
      4 H           3.0200   36.4312    9.1686 H       4  GLU4        0.1499
      5 C           1.3935   32.4724    9.3124 C.2     2  UNK2        0.2442
      6 O           0.2589   32.5916    9.7840 O.2     2  UNK2       -0.2731
      7 N           2.3109   33.4933    9.5304 N.am    3  PRO3       -0.2717
      8 CD          3.7165   33.5557    9.1386 C.3     3  PRO3        0.0939
      9 CG          4.4155   34.4104   10.1863 C.3     3  PRO3        0.0237
     10 CB          3.3716   34.7040   11.2578 C.3     3  PRO3        0.0310
     11 CA          2.0106   34.4650   10.5974 C.3     3  PRO3        0.1518
     12 C           1.8261   31.2026    8.5187 C.3     2  UNK2        0.1532
     13 C           2.3900   29.5012   10.2988 C.2     1  GLY1        0.2387
     14 O           3.4089   30.0757   10.6697 O.2     1  GLY1       -0.2736
     15 N           1.5682   29.9773    9.2978 N.am    2  UNK2       -0.2969
     16 H           0.7139   29.4706    9.1269 H       2  UNK2        0.1499
     17 N           0.3894   28.1769   11.0194 N.3     1  GLY1       -0.3135
     18 CA          1.8595   28.2532   11.0215 C.3     1  GLY1        0.1515
     19 H1          0.1137   27.2643   11.3830 H       1  GLY1        0.1193
     20 H2         -0.0156   28.8658   11.6430 H       1  GLY1        0.1193
     21 C           1.2536   31.1894    7.0859 C.3     2  UNK2        0.0553
     22 C           2.0873   31.8428    5.9881 C.ar    2  UNK2       -0.0199
     23 C           1.5335   32.5179    4.8884 C.ar    2  UNK2       -0.0019
     24 C           2.3466   33.1418    3.9391 C.ar    2  UNK2        0.0293
     25 C           3.7254   33.0719    4.0653 C.ar    2  UNK2        0.1401
     26 F           4.5001   33.6695    3.1527 F       2  UNK2       -0.2042
     27 C           4.3061   32.3878    5.1246 C.ar    2  UNK2        0.0293
     28 C           3.4906   31.7780    6.0849 C.ar    2  UNK2       -0.0019
     29 CA          1.5222   37.9768    9.0215 C.3     4  GLU4        0.1491
     30 C           2.2420   38.4563    7.7226 C.2     4  GLU4        0.2407
     31 O           2.5607   37.6849    6.8214 O.2     4  GLU4       -0.2733
     32 N           2.5470   39.8021    7.7032 N.am    5  GLY5       -0.2953
     33 H           2.1256   40.4093    8.3958 H       5  GLY5        0.1499
     34 CA          3.1792   40.4359    6.5543 C.3     5  GLY5        0.1757
     35 C           3.3537   41.9496    6.7612 C.2     5  GLY5        0.2429
     36 O           4.4376   42.4625    7.0310 O.2     5  GLY5       -0.2732
     37 N           2.1993   42.6948    6.6630 N.am    6  GLY6       -0.2936
     38 H           1.3032   42.2656    6.4556 H       6  GLY6        0.1500
     39 CA          2.2201   44.1467    6.7977 C.3     6  GLY6        0.2004
     40 C           1.1232   44.6788    7.7082 C.2     6  GLY6        0.3341
     41 O           1.1857   44.7955    8.9215 O.2     6  GLY6       -0.2484
     42 OXT         0.0033   45.0583    7.0494 O.3     6  GLY6       -0.4790
     43 HXT        -0.5819   45.3824    7.7673 H       6  GLY6        0.2951
     44 CB          1.5147   39.1196   10.0533 C.3     4  GLU4        0.0406
     45 CG          0.1366   39.7247   10.3627 C.3     4  GLU4        0.1116
     46 CD          0.1631   41.2141   10.4855 C.2     4  GLU4        0.3139
     47 OE1        -0.3305   41.9048   11.3474 O.2     4  GLU4       -0.2503
     48 OE2         0.7750   41.7834    9.4289 O.3     4  GLU4       -0.4802
     49 HE2         0.4175   42.6838    9.5013 H       4  GLU4        0.2951
@<TRIPOS>BOND
     1    17    18    1
     2    17    19    1
     3    17    20    1
     4    18    13    1
     5    13    14    2
     6    13    15   am
     7    15    12    1
     8    15    16    1
     9    12    21    1
    10    12     5    1
    11    21    22    1
    12    22    23   ar
    13    22    28   ar
    14    23    24   ar
    15    24    25   ar
    16    25    26    1
    17    25    27   ar
    18    27    28   ar
    19     5     6    2
    20     5     7   am
    21     7     8    1
    22     7    11    1
    23     8     9    1
    24     9    10    1
    25    10    11    1
    26    11     1    1
    27     1     2    2
    28     1     3   am
    29     3    29    1
    30     3     4    1
    31    29    44    1
    32    29    30    1
    33    44    45    1
    34    45    46    1
    35    46    47    2
    36    46    48    1
    37    48    49    1
    38    30    31    2
    39    30    32   am
    40    32    34    1
    41    32    33    1
    42    34    35    1
    43    35    36    2
    44    35    37   am
    45    37    39    1
    46    37    38    1
    47    39    40    1
    48    40    41    2
    49    40    42    1
    50    42    43    1






#	Name:			CHEMBL1165259
#	Creating user name:	trannguyen
#	Creation time:		Wed Dec  7 14:36:25 2022


#	Modifying user name:	trannguyen
#	Modification time:	Wed Dec  7 14:36:25 2022

@<TRIPOS>MOLECULE
CHEMBL1165259
 61 63 0 0 0
SMALL
GASTEIGER

@<TRIPOS>ATOM
      1 CA          8.8343   33.2149    7.3720 C.3     3  TYR3        0.1530
      2 N           7.3987   33.5783    5.3812 N.am    4  VAL4       -0.2970
      3 C           7.8323   32.6590    6.3089 C.2     3  TYR3        0.2410
      4 O           7.3250   31.5285    6.3628 O.2     3  TYR3       -0.2733
      5 H           7.4266   34.5471    5.6943 H       4  VAL4        0.1499
      6 CA          6.4443   33.2348    4.3114 C.3     4  VAL4        0.1485
      7 C           4.9365   33.3981    4.7544 C.2     4  VAL4        0.2406
      8 O           4.2550   34.3819    4.4586 O.2     4  VAL4       -0.2733
      9 N           4.4097   32.3561    5.5151 N.am    5  ALA5       -0.2970
     10 H           5.0267   31.5926    5.7844 H       5  ALA5        0.1499
     11 CA          3.0221   32.3112    6.0597 C.3     5  ALA5        0.1486
     12 CB          2.2092   31.1125    5.5632 C.3     5  ALA5        0.0312
     13 C           3.0399   32.3643    7.6106 C.2     5  ALA5        0.2407
     14 O           2.9739   33.3993    8.2731 O.2     5  ALA5       -0.2733
     15 N           3.3411   31.1476    8.1893 N.am    6  GLU6       -0.2954
     16 H           3.3068   30.3445    7.5681 H       6  GLU6        0.1499
     17 CA          3.5313   30.9772    9.6297 C.3     6  GLU6        0.1718
     18 C           4.8558   30.2803    9.9006 C.2     6  GLU6        0.3318
     19 O           5.8298   30.3700    9.1302 O.2     6  GLU6       -0.2485
     20 OXT         4.9444   29.5698   11.0380 O.3     6  GLU6       -0.4791
     21 HXT         4.0581   29.4374   11.4677 H       6  GLU6        0.2951
     22 CB          2.3432   30.2569   10.3249 C.3     6  GLU6        0.0427
     23 CG          2.0657   28.8523    9.7455 C.3     6  GLU6        0.1116
     24 CD          2.1915   27.7968   10.8430 C.2     6  GLU6        0.3139
     25 OE1         2.2407   28.0528   12.0323 O.2     6  GLU6       -0.2503
     26 OE2         2.2301   26.5294   10.3466 O.3     6  GLU6       -0.4802
     27 HE2         2.1875   26.4536    9.3825 H       6  GLU6        0.2951
     28 CG1         7.6590   32.0359    2.4018 C.3     4  VAL4        0.0022
     29 CB          6.8163   31.8631    3.6673 C.3     4  VAL4        0.0269
     30 CG2         5.6731   30.8792    3.3801 C.3     4  VAL4        0.0022
     31 N          10.1724   33.1352    6.7182 N.am    3  TYR3       -0.2967
     32 C          11.2359   32.3534    7.1091 C.2     2  PRO2        0.2409
     33 O          11.8427   31.7464    6.2222 O.2     2  PRO2       -0.2733
     34 H          10.1178   33.1030    5.7055 H       3  TYR3        0.1499
     35 CA         11.7436   32.4140    8.5689 C.3     2  PRO2        0.1518
     36 CB         11.0601   31.3550    9.4390 C.3     2  PRO2        0.0310
     37 CG         10.1090   32.1409   10.3448 C.3     2  PRO2        0.0237
     38 CD         10.8038   33.4744   10.5237 C.3     2  PRO2        0.0939
     39 N          11.4746   33.6781    9.2582 N.am    2  PRO2       -0.2719
     40 C          12.2478   34.7545    8.9054 C.2     1  PHE1        0.2403
     41 O          13.0321   34.5971    7.9641 O.2     1  PHE1       -0.2734
     42 CA         12.2149   36.0319    9.7862 C.3     1  PHE1        0.1329
     43 N          13.5416   36.1904   10.4353 N.3     1  PHE1       -0.3148
     44 H1         13.8287   35.3008   10.8385 H       1  PHE1        0.1192
     45 H2         14.2177   36.3690    9.6869 H       1  PHE1        0.1192
     46 CB         11.8194   37.2949    8.9812 C.3     1  PHE1        0.0512
     47 CG         10.6460   38.0831    9.5255 C.ar    1  PHE1       -0.0203
     48 CD1        10.5379   38.3263   10.9037 C.ar    1  PHE1       -0.0042
     49 CE1         9.3954   38.9139   11.4402 C.ar    1  PHE1       -0.0003
     50 CZ          8.3731   39.3293   10.5940 C.ar    1  PHE1       -0.0000
     51 CE2         8.4847   39.1339    9.2173 C.ar    1  PHE1       -0.0003
     52 CD2         9.6112   38.5052    8.6841 C.ar    1  PHE1       -0.0042
     53 CB          8.4553   34.6471    7.8152 C.3     3  TYR3        0.0553
     54 CG          7.5312   34.7470    9.0170 C.ar    3  TYR3       -0.0198
     55 CD1         6.3863   33.9415    9.1311 C.ar    3  TYR3       -0.0011
     56 CE1         5.5462   34.0441   10.2493 C.ar    3  TYR3        0.0363
     57 CZ          5.8354   34.9719   11.2437 C.ar    3  TYR3        0.1337
     58 OH          5.0335   35.1310   12.3349 O.3     3  TYR3       -0.5055
     59 CE2         6.9674   35.7685   11.1555 C.ar    3  TYR3        0.0363
     60 CD2         7.8241   35.6386   10.0602 C.ar    3  TYR3       -0.0011
     61 HH          4.3234   34.4696   12.3023 H       3  TYR3        0.2922
@<TRIPOS>BOND
     1    28    29    1
     2    29    30    1
     3     6     2    1
     4     6     7    1
     5     6    29    1
     6     2     3   am
     7     2     5    1
     8     3     4    2
     9     1    53    1
    10     1    31    1
    11     1     3    1
    12    53    54    1
    13    54    55   ar
    14    54    60   ar
    15    55    56   ar
    16    56    57   ar
    17    57    58    1
    18    57    59   ar
    19    58    61    1
    20    59    60   ar
    21    31    32   am
    22    31    34    1
    23    32    33    2
    24    35    36    1
    25    35    39    1
    26    35    32    1
    27    36    37    1
    28    37    38    1
    29    38    39    1
    30    39    40   am
    31    40    41    2
    32    40    42    1
    33    42    43    1
    34    42    46    1
    35    43    44    1
    36    43    45    1
    37    46    47    1
    38    47    48   ar
    39    47    52   ar
    40    48    49   ar
    41    49    50   ar
    42    50    51   ar
    43    51    52   ar
    44     7     8    2
    45     7     9   am
    46     9    11    1
    47     9    10    1
    48    11    12    1
    49    11    13    1
    50    13    14    2
    51    13    15   am
    52    15    17    1
    53    15    16    1
    54    17    22    1
    55    17    18    1
    56    22    23    1
    57    23    24    1
    58    24    25    2
    59    24    26    1
    60    26    27    1
    61    18    19    2
    62    18    20    1
    63    20    21    1



#	Name:			CHEMBL1167
#	Creating user name:	trannguyen
#	Creation time:		Wed Dec  7 14:36:25 2022


#	Modifying user name:	trannguyen
#	Modification time:	Wed Dec  7 14:36:25 2022

@<TRIPOS>MOLECULE
CHEMBL1167
 28 30 0 0 0
SMALL
GASTEIGER

@<TRIPOS>ATOM
      1 C           3.2911   34.5790    9.6605 C.3     1  UNL1        0.1128
      2 C           2.3911   33.3166    9.8645 C.3     1  UNL1        0.1440
      3 O           0.9991   33.6466    9.9544 O.3     1  UNL1       -0.3815
      4 C           2.5941   32.2259    8.7693 C.3     1  UNL1        0.1124
      5 C           4.0899   31.8292    8.7206 C.3     1  UNL1        0.1567
      6 O           4.3961   31.1151    9.9324 O.3     1  UNL1       -0.3804
      7 C           5.0066   33.0590    8.4985 C.3     1  UNL1        0.1744
      8 O           6.4072   32.7180    8.3974 O.3     1  UNL1       -0.3239
      9 C           6.9815   32.3213    9.6448 C.3     1  UNL1        0.2960
     10 O           8.3899   32.0739    9.5151 O.3     1  UNL1       -0.3286
     11 C           9.1419   33.2564    9.2457 C.3     1  UNL1        0.1255
     12 C          10.5750   32.8254    8.9628 C.3     1  UNL1        0.0326
     13 C           9.0724   34.1748   10.4524 C.3     1  UNL1        0.0993
     14 C           7.6207   34.5172   10.6837 C.2     1  UNL1        0.2087
     15 O           7.2639   35.6911   10.7888 O.2     1  UNL1       -0.2907
     16 C           6.6526   33.3106   10.8195 C.3     1  UNL1        0.2908
     17 O           6.9712   32.7009   12.0797 O.3     1  UNL1       -0.3547
     18 O           5.2513   33.6256   10.8483 O.3     1  UNL1       -0.3238
     19 C           4.7905   34.1339    9.5789 C.3     1  UNL1        0.1643
     20 H           0.6408   33.4380    9.0663 H       1  UNL1        0.2105
     21 H           4.3473   31.7265   10.6934 H       1  UNL1        0.2105
     22 H           7.4117   31.8515   11.9026 H       1  UNL1        0.2134
     23 C           2.4826   36.7405    8.7650 C.3     1  UNL1        0.0860
     24 N           2.9969   35.4058    8.4490 N.3     1  UNL1       -0.2934
     25 H           3.8856   35.5613    7.9629 H       1  UNL1        0.1234
     26 N           1.9765   32.6993    7.5104 N.3     1  UNL1       -0.2934
     27 C           2.0786   31.7520    6.4126 C.3     1  UNL1        0.0860
     28 H           2.3808   33.6064    7.2438 H       1  UNL1        0.1234
@<TRIPOS>BOND
     1    23    24    1
     2    24    25    1
     3     1     2    1
     4     1    19    1
     5     1    24    1
     6     2     4    1
     7     2     3    1
     8     3    20    1
     9     4    26    1
    10     4     5    1
    11    26    27    1
    12    26    28    1
    13     5     7    1
    14     5     6    1
    15     6    21    1
    16     7     8    1
    17     7    19    1
    18     8     9    1
    19     9    10    1
    20     9    16    1
    21    10    11    1
    22    11    13    1
    23    11    12    1
    24    13    14    1
    25    14    15    2
    26    14    16    1
    27    16    17    1
    28    16    18    1
    29    17    22    1
    30    18    19    1



#	Name:			CHEMBL1168
#	Creating user name:	trannguyen
#	Creation time:		Wed Dec  7 14:36:25 2022


#	Modifying user name:	trannguyen
#	Modification time:	Wed Dec  7 14:36:25 2022

@<TRIPOS>MOLECULE
CHEMBL1168
 32 34 0 0 0
SMALL
GASTEIGER

@<TRIPOS>ATOM
      1 N           2.7939   33.7729    7.7252 N.3     1  ALA1       -0.2835
      2 H           1.7781   33.7013    7.7597 H       1  ALA1        0.1241
      3 CA          3.3881   33.1702    8.9528 C.3     1  ALA1        0.1321
      4 CB          4.0041   34.2995    9.7966 C.3     1  ALA1        0.0270
      5 C           2.3584   32.3922    9.8233 C.2     1  ALA1        0.2402
      6 O           1.5172   32.9873   10.4998 O.2     1  ALA1       -0.2734
      7 N           2.4040   31.0017    9.7929 N.am    2  UNK2       -0.2720
      8 C           1.4262   30.1595   10.5230 C.3     2  UNK2        0.1745
      9 C           2.2174   28.8906   10.8557 C.3     2  UNK2        0.0329
     10 C           3.1646   28.7450    9.6559 C.3     2  UNK2        0.0204
     11 C           4.4745   28.0237    9.9794 C.3     2  UNK2        0.0018
     12 C           5.5634   29.0935    9.9574 C.3     2  UNK2        0.0018
     13 C           4.8170   30.3990   10.1525 C.3     2  UNK2        0.0198
     14 C           3.5372   30.1982    9.3444 C.3     2  UNK2        0.0758
     15 C           0.1901   29.7640    9.6929 C.2     2  UNK2        0.3320
     16 O          -0.1688   30.3561    8.6854 O.2     2  UNK2       -0.2485
     17 O          -0.5242   28.7373   10.2131 O.3     2  UNK2       -0.4790
     18 H          -0.1297   28.4156   11.0514 H       2  UNK2        0.2951
     19 C           3.3118   33.3359    6.3860 C.3     0  UNK0        0.1550
     20 C           2.1482   32.6805    5.6121 C.2     0  UNK0        0.3314
     21 O           1.3417   31.9177    6.1163 O.2     0  UNK0       -0.2486
     22 O           2.3336   32.9254    4.2748 O.3     0  UNK0       -0.4476
     23 C           3.3519   30.8425    3.6677 C.3     0  UNK0        0.0513
     24 C           2.1978   31.7948    3.4001 C.3     0  UNK0        0.2086
     25 C           4.5263   32.3786    6.6065 C.3     0  UNK0        0.0318
     26 C           5.9548   32.9407    6.3562 C.3     0  UNK0        0.0283
     27 C           7.0764   32.3739    7.2370 C.ar    0  UNK0       -0.0221
     28 C           7.8957   31.3158    6.8153 C.ar    0  UNK0       -0.0043
     29 C           8.7692   30.6708    7.7032 C.ar    0  UNK0       -0.0003
     30 C           8.8444   31.0712    9.0335 C.ar    0  UNK0       -0.0000
     31 C           8.0969   32.1649    9.4585 C.ar    0  UNK0       -0.0003
     32 C           7.2235   32.8117    8.5690 C.ar    0  UNK0       -0.0043
@<TRIPOS>BOND
     1    23    24    1
     2    24    22    1
     3    22    20    1
     4    20    21    2
     5    19    25    1
     6    19     1    1
     7    19    20    1
     8    25    26    1
     9    26    27    1
    10    27    28   ar
    11    27    32   ar
    12    28    29   ar
    13    29    30   ar
    14    30    31   ar
    15    31    32   ar
    16     1     3    1
    17     1     2    1
    18     3     4    1
    19     3     5    1
    20     5     6    2
    21     5     7   am
    22     7     8    1
    23     7    14    1
    24     8     9    1
    25     8    15    1
    26    15    16    2
    27    15    17    1
    28    17    18    1
    29     9    10    1
    30    10    11    1
    31    10    14    1
    32    11    12    1
    33    12    13    1
    34    13    14    1



#	Name:			CHEMBL1172
#	Creating user name:	trannguyen
#	Creation time:		Wed Dec  7 14:36:25 2022


#	Modifying user name:	trannguyen
#	Modification time:	Wed Dec  7 14:36:25 2022

@<TRIPOS>MOLECULE
CHEMBL1172
 23 26 0 0 0
SMALL
GASTEIGER

@<TRIPOS>ATOM
      1 CL          7.2701   34.8892   11.2139 Cl      1  UNL1       -0.0823
      2 C           6.1079   34.0121   10.2962 C.ar    1  UNL1        0.0574
      3 C           4.9939   34.6728    9.7822 C.ar    1  UNL1        0.0114
      4 C           4.0519   33.9628    9.0370 C.ar    1  UNL1        0.0006
      5 C           4.2341   32.5945    8.7939 C.ar    1  UNL1       -0.0031
      6 C           5.3435   31.9232    9.3369 C.ar    1  UNL1       -0.0210
      7 C           6.2852   32.6442   10.0838 C.ar    1  UNL1        0.0071
      8 C           5.4802   30.4336    9.1351 C.3     1  UNL1        0.0311
      9 C           4.4067   29.6451    9.8972 C.3     1  UNL1        0.0326
     10 C           2.9421   29.8301    9.5528 C.ar    1  UNL1       -0.0042
     11 C           2.0296   28.9640   10.1825 C.ar    1  UNL1       -0.0012
     12 C           0.6629   29.0941    9.9676 C.ar    1  UNL1        0.0204
     13 C           0.2335   30.1019    9.1302 C.ar    1  UNL1        0.0988
     14 N           1.0655   30.9582    8.5054 N.ar    1  UNL1       -0.2442
     15 C           2.4050   30.8089    8.7046 C.ar    1  UNL1        0.0767
     16 C           3.2492   31.8161    8.0067 C.2     1  UNL1        0.0092
     17 C           3.1972   31.9731    6.6564 C.2     1  UNL1       -0.0400
     18 C           2.2913   31.1971    5.7095 C.3     1  UNL1        0.0392
     19 C           1.3966   32.1682    4.9258 C.3     1  UNL1        0.0730
     20 N           2.1776   33.1555    4.1617 N.3     1  UNL1       -0.2969
     21 C           3.0953   33.8915    5.0440 C.3     1  UNL1        0.0730
     22 C           4.0231   32.9617    5.8433 C.3     1  UNL1        0.0392
     23 H           1.5365   33.8149    3.7224 H       1  UNL1        0.1233
@<TRIPOS>BOND
     1     1     2    1
     2     2     3   ar
     3     2     7   ar
     4     3     4   ar
     5     4     5   ar
     6     5     6   ar
     7     5    16    1
     8     6     7   ar
     9     6     8    1
    10     8     9    1
    11     9    10    1
    12    10    11   ar
    13    10    15   ar
    14    11    12   ar
    15    12    13   ar
    16    13    14   ar
    17    14    15   ar
    18    15    16    1
    19    16    17    2
    20    17    18    1
    21    17    22    1
    22    18    19    1
    23    19    20    1
    24    20    21    1
    25    20    23    1
    26    21    22    1



#	Name:			CHEMBL117405
#	Creating user name:	trannguyen
#	Creation time:		Wed Dec  7 14:36:25 2022


#	Modifying user name:	trannguyen
#	Modification time:	Wed Dec  7 14:36:25 2022

@<TRIPOS>MOLECULE
CHEMBL117405
 21 22 0 0 0
SMALL
GASTEIGER

@<TRIPOS>ATOM
      1 O           3.9593   31.5809    9.3876 O.3     1  UNL1       -0.4728
      2 C           3.6915   30.2534    9.6459 C.ar    1  UNL1        0.1400
      3 C           4.6788   29.2825    9.8983 C.ar    1  UNL1        0.0370
      4 C           4.3506   27.9496   10.1436 C.ar    1  UNL1        0.0046
      5 C           3.0234   27.5264   10.1621 C.ar    1  UNL1        0.0172
      6 C           2.0405   28.4925    9.9286 C.ar    1  UNL1        0.0596
      7 N           0.6683   28.3529    9.9021 N.ar    1  UNL1       -0.3519
      8 H           0.1781   27.4893   10.0662 H       1  UNL1        0.1660
      9 C           0.0806   29.5566    9.6134 C.ar    1  UNL1        0.0725
     10 C           1.0827   30.4884    9.4705 C.ar    1  UNL1        0.0229
     11 C           2.3371   29.8332    9.6702 C.ar    1  UNL1        0.0510
     12 C           4.8780   31.8352    8.3097 C.3     1  UNL1        0.2358
     13 C           4.3608   33.0046    7.4642 C.3     1  UNL1        0.1697
     14 O           5.2594   33.2725    6.3756 O.3     1  UNL1       -0.3793
     15 H           6.1447   33.3452    6.7810 H       1  UNL1        0.2106
     16 C           2.9440   32.7391    6.9069 C.3     1  UNL1        0.1020
     17 N           2.7748   31.3817    6.3581 N.3     1  UNL1       -0.2964
     18 H           3.6880   30.9188    6.3908 H       1  UNL1        0.1233
     19 C           1.5700   32.6838    4.5799 C.3     1  UNL1        0.0171
     20 C           2.2429   31.3700    4.9864 C.3     1  UNL1        0.0541
     21 C           3.3831   31.0667    4.0084 C.3     1  UNL1        0.0171
@<TRIPOS>BOND
     1    19    20    1
     2    20    21    1
     3    20    17    1
     4    17    16    1
     5    17    18    1
     6    13    14    1
     7    13    12    1
     8    13    16    1
     9    14    15    1
    10    12     1    1
    11     1     2    1
    12     2     3   ar
    13     2    11   ar
    14     3     4   ar
    15     4     5   ar
    16     5     6   ar
    17     6     7   ar
    18     6    11   ar
    19     7     8    1
    20     7     9   ar
    21     9    10   ar
    22    10    11   ar



#	Name:			CHEMBL118
#	Creating user name:	trannguyen
#	Creation time:		Wed Dec  7 14:36:25 2022


#	Modifying user name:	trannguyen
#	Modification time:	Wed Dec  7 14:36:25 2022

@<TRIPOS>MOLECULE
CHEMBL118
 28 30 0 0 0
SMALL
GASTEIGER

@<TRIPOS>ATOM
      1 C           4.9843   32.6143    7.1825 C.ar    1  UNL1        0.0842
      2 C           4.8659   33.2526    5.9557 C.ar    1  UNL1        0.0440
      3 C           3.6042   32.9235    5.4289 C.ar    1  UNL1        0.1740
      4 N           2.9272   32.1502    6.2909 N.ar    1  UNL1       -0.1611
      5 N           3.7751   31.9073    7.3398 N.ar    1  UNL1       -0.2297
      6 C           9.5099   33.1288   10.8126 C.3     1  UNL1        0.0310
      7 C           8.3425   33.0062    9.8754 C.ar    1  UNL1       -0.0218
      8 C           8.4269   32.1662    8.7592 C.ar    1  UNL1       -0.0042
      9 C           7.3230   31.9739    7.9115 C.ar    1  UNL1        0.0012
     10 C           6.1568   32.7268    8.0750 C.ar    1  UNL1        0.0177
     11 C           6.0760   33.5539    9.2123 C.ar    1  UNL1        0.0012
     12 C           7.1409   33.6713   10.1166 C.ar    1  UNL1       -0.0042
     13 C           3.3253   30.9721    8.3359 C.ar    1  UNL1        0.0829
     14 C           4.2179   30.2871    9.1666 C.ar    1  UNL1        0.0205
     15 C           3.7471   29.3486   10.1017 C.ar    1  UNL1        0.0214
     16 C           2.3772   29.0835   10.1988 C.ar    1  UNL1        0.1218
     17 C           1.4742   29.7345    9.3615 C.ar    1  UNL1        0.0214
     18 C           1.9451   30.6759    8.4394 C.ar    1  UNL1        0.0205
     19 S           1.7702   27.9033   11.3795 S.O2    1  UNL1        0.0572
     20 N           0.1253   27.9043   11.0136 N.3     1  UNL1       -0.2035
     21 O           2.2512   26.5835   10.9978 O.2     1  UNL1       -0.1532
     22 O           1.9342   28.4364   12.7015 O.2     1  UNL1       -0.1532
     23 H          -0.1256   27.0089   10.5938 H       1  UNL1        0.1442
     24 H          -0.1529   28.6949   10.4332 H       1  UNL1        0.1442
     25 C           3.0466   33.3847    4.1056 C.3     1  UNL1        0.4366
     26 F           4.0383   33.7563    3.2458 F       1  UNL1       -0.1643
     27 F           2.3361   32.4175    3.4672 F       1  UNL1       -0.1643
     28 F           2.2310   34.4641    4.2328 F       1  UNL1       -0.1643
@<TRIPOS>BOND
     1     6     7    1
     2     7     8   ar
     3     7    12   ar
     4     8     9   ar
     5     9    10   ar
     6    10     1    1
     7    10    11   ar
     8     1     2   ar
     9     1     5   ar
    10     2     3   ar
    11     3    25    1
    12     3     4   ar
    13    25    26    1
    14    25    27    1
    15    25    28    1
    16     4     5   ar
    17     5    13    1
    18    13    14   ar
    19    13    18   ar
    20    14    15   ar
    21    15    16   ar
    22    16    19    1
    23    16    17   ar
    24    19    20    1
    25    19    21    2
    26    19    22    2
    27    20    23    1
    28    20    24    1
    29    17    18   ar
    30    11    12   ar



#	Name:			CHEMBL11804
#	Creating user name:	trannguyen
#	Creation time:		Wed Dec  7 14:36:25 2022


#	Modifying user name:	trannguyen
#	Modification time:	Wed Dec  7 14:36:25 2022

@<TRIPOS>MOLECULE
CHEMBL11804
 35 37 0 0 0
SMALL
GASTEIGER

@<TRIPOS>ATOM
      1 C           4.0652   32.0221    6.4747 C.2     1  UNL1        0.0371
      2 C           5.4150   32.2230    6.4936 C.2     1  UNL1        0.0030
      3 C           6.1605   32.3933    5.2177 C.ar    1  UNL1        0.0002
      4 C           6.5744   33.6733    4.8144 C.ar    1  UNL1        0.0023
      5 C           7.2331   33.8487    3.5974 C.ar    1  UNL1        0.0296
      6 C           7.4753   32.7465    2.7872 C.ar    1  UNL1        0.1401
      7 F           8.1081   32.9145    1.6189 F       1  UNL1       -0.2042
      8 C           7.0726   31.4715    3.1703 C.ar    1  UNL1        0.0296
      9 C           6.4150   31.2912    4.3888 C.ar    1  UNL1        0.0023
     10 C           6.1187   32.3755    7.7974 C.ar    1  UNL1        0.0002
     11 C           6.0479   33.5968    8.4854 C.ar    1  UNL1        0.0023
     12 C           6.6390   33.7349    9.7422 C.ar    1  UNL1        0.0296
     13 C           7.2996   32.6530   10.3094 C.ar    1  UNL1        0.1401
     14 F           7.8369   32.7742   11.5303 F       1  UNL1       -0.2042
     15 C           7.4067   31.4441    9.6302 C.ar    1  UNL1        0.0296
     16 C           6.8229   31.3045    8.3676 C.ar    1  UNL1        0.0023
     17 C           2.9363   34.5071    5.0385 C.3     1  UNL1        0.1573
     18 N           2.9502   33.1412    4.5938 N.ar    1  UNL1       -0.2113
     19 N           2.3522   32.8294    3.4347 N.ar    1  UNL1       -0.0429
     20 N           2.4314   31.5109    3.3420 N.ar    1  UNL1       -0.0227
     21 N           3.0873   30.9756    4.4243 N.ar    1  UNL1       -0.1081
     22 C           3.3882   31.9961    5.2118 C.ar    1  UNL1        0.1838
     23 C           3.2765   31.9368    7.7071 C.2     1  UNL1        0.0009
     24 C           1.9597   31.6674    7.6900 C.2     1  UNL1        0.0027
     25 C           1.0952   31.4654    8.8917 C.3     1  UNL1        0.1349
     26 O           0.0460   32.4199    8.7360 O.3     1  UNL1       -0.3800
     27 H          -0.4673   32.4276    9.5586 H       1  UNL1        0.2108
     28 C           0.4929   30.0523    9.0165 C.3     1  UNL1        0.0634
     29 C           0.8897   29.2346   10.2659 C.3     1  UNL1        0.1188
     30 O           0.0260   28.0977   10.3749 O.3     1  UNL1       -0.3840
     31 H           0.4100   27.4881   11.0302 H       1  UNL1        0.2104
     32 C           2.3418   28.7747   10.3894 C.3     1  UNL1        0.0710
     33 C           2.5457   27.3224   10.7106 C.2     1  UNL1        0.0528
     34 O           2.8615   26.5525    9.7497 O.co2   1  UNL1       -0.5491
     35 O           2.2046   26.8436   11.8063 O.co2   1  UNL1       -0.5491
@<TRIPOS>UNITY_ATOM_ATTR
34 1
charge -1
@<TRIPOS>BOND
     1    17    18    1
     2    18    19   ar
     3    18    22   ar
     4    19    20   ar
     5    20    21   ar
     6    21    22   ar
     7    22     1    1
     8     1    23    1
     9     1     2    2
    10    23    24    2
    11    24    25    1
    12    25    26    1
    13    25    28    1
    14    26    27    1
    15    28    29    1
    16    29    30    1
    17    29    32    1
    18    30    31    1
    19    32    33    1
    20    33    34   ar
    21    33    35   ar
    22     2     3    1
    23     2    10    1
    24     3     4   ar
    25     3     9   ar
    26     4     5   ar
    27     5     6   ar
    28     6     7    1
    29     6     8   ar
    30     8     9   ar
    31    10    11   ar
    32    10    16   ar
    33    11    12   ar
    34    12    13   ar
    35    13    14    1
    36    13    15   ar
    37    15    16   ar



#	Name:			CHEMBL11891
#	Creating user name:	trannguyen
#	Creation time:		Wed Dec  7 14:36:25 2022


#	Modifying user name:	trannguyen
#	Modification time:	Wed Dec  7 14:36:25 2022

@<TRIPOS>MOLECULE
CHEMBL11891
 34 36 0 0 0
SMALL
GASTEIGER

@<TRIPOS>ATOM
      1 C           4.4052   33.0586    8.4649 C.2     1  UNL1        0.0860
      2 C           4.9756   32.8847    7.2146 C.2     1  UNL1        0.0178
      3 C           6.5026   32.7898    7.0461 C.ar    1  UNL1        0.0016
      4 C           7.2997   33.9514    7.0410 C.ar    1  UNL1        0.0024
      5 C           8.6888   33.8990    6.8069 C.ar    1  UNL1        0.0296
      6 C           9.3164   32.6790    6.6074 C.ar    1  UNL1        0.1401
      7 F          10.6387   32.6319    6.3900 F       1  UNL1       -0.2042
      8 C           8.5756   31.5107    6.6154 C.ar    1  UNL1        0.0296
      9 C           7.1804   31.5715    6.7952 C.ar    1  UNL1        0.0024
     10 C           4.0854   32.6534    5.9652 C.ar    1  UNL1        0.0016
     11 C           3.6910   33.7144    5.1168 C.ar    1  UNL1        0.0024
     12 C           3.0079   33.4849    3.8994 C.ar    1  UNL1        0.0296
     13 C           2.6652   32.1940    3.5280 C.ar    1  UNL1        0.1401
     14 F           2.0336   31.9732    2.3642 F       1  UNL1       -0.2042
     15 C           2.9809   31.1318    4.3619 C.ar    1  UNL1        0.0296
     16 C           3.6976   31.3572    5.5611 C.ar    1  UNL1        0.0024
     17 N           5.1196   33.3579    9.6846 N.ar    1  UNL1       -0.1886
     18 C           5.0902   34.5708   10.3856 C.ar    1  UNL1        0.2258
     19 N           5.8140   34.5036   11.4759 N.ar    1  UNL1       -0.1045
     20 N           6.3665   33.2617   11.4651 N.ar    1  UNL1       -0.0222
     21 N           5.9808   32.5728   10.4001 N.ar    1  UNL1       -0.0385
     22 C           2.3121   31.7791    8.9621 C.2     1  UNL1        0.0041
     23 C           2.9498   32.9248    8.6631 C.2     1  UNL1        0.0171
     24 C           0.8268   31.6155    9.1854 C.3     1  UNL1        0.1350
     25 O           0.1229   32.3887    8.2092 O.3     1  UNL1       -0.3800
     26 H           0.3380   32.0285    7.3350 H       1  UNL1        0.2108
     27 C           0.2774   30.1803    9.1318 C.3     1  UNL1        0.0634
     28 C           0.6812   29.2928   10.3150 C.3     1  UNL1        0.1188
     29 O          -0.3823   28.3658   10.5606 O.3     1  UNL1       -0.3840
     30 H           0.0132   27.5609   10.9537 H       1  UNL1        0.2104
     31 C           2.0195   28.5642   10.1259 C.3     1  UNL1        0.0710
     32 O           2.0615   28.0451   12.4258 O.co2   1  UNL1       -0.5491
     33 C           2.2193   27.6059   11.2656 C.2     1  UNL1        0.0528
     34 O           2.2057   26.3510   11.0087 O.co2   1  UNL1       -0.5491
@<TRIPOS>UNITY_ATOM_ATTR
32 1
charge -1
@<TRIPOS>BOND
     1    32    33   ar
     2    33    34   ar
     3    33    31    1
     4    28    29    1
     5    28    27    1
     6    28    31    1
     7    29    30    1
     8    24    25    1
     9    24    22    1
    10    24    27    1
    11    25    26    1
    12    22    23    2
    13    23     1    1
    14     1     2    2
    15     1    17    1
    16     2     3    1
    17     2    10    1
    18     3     4   ar
    19     3     9   ar
    20     4     5   ar
    21     5     6   ar
    22     6     7    1
    23     6     8   ar
    24     8     9   ar
    25    10    11   ar
    26    10    16   ar
    27    11    12   ar
    28    12    13   ar
    29    13    14    1
    30    13    15   ar
    31    15    16   ar
    32    17    18   ar
    33    17    21   ar
    34    18    19   ar
    35    19    20   ar
    36    20    21   ar



#	Name:			CHEMBL119385
#	Creating user name:	trannguyen
#	Creation time:		Wed Dec  7 14:36:25 2022


#	Modifying user name:	trannguyen
#	Modification time:	Wed Dec  7 14:36:25 2022

@<TRIPOS>MOLECULE
CHEMBL119385
 28 31 0 0 0
SMALL
GASTEIGER

@<TRIPOS>ATOM
      1 O          10.1747   33.9138   10.3033 O.2     1  UNL1       -0.2651
      2 C           8.9822   33.6498   10.1909 C.ar    1  UNL1        0.2821
      3 N           8.1164   33.7027   11.2590 N.ar    1  UNL1       -0.1855
      4 C           6.8770   33.4174   11.0481 C.ar    1  UNL1        0.2029
      5 N           6.2869   33.0506    9.8561 N.ar    1  UNL1       -0.2088
      6 N           4.9236   32.8230    9.8175 N.ar    1  UNL1       -0.1571
      7 C           4.4256   32.4970    8.6686 C.ar    1  UNL1        0.1309
      8 C           5.1744   32.3350    7.4089 C.ar    1  UNL1        0.0291
      9 C           6.4891   32.5731    7.4778 C.ar    1  UNL1        0.0215
     10 C           7.1203   32.9698    8.7326 C.ar    1  UNL1        0.0893
     11 C           8.4393   33.2530    8.8388 C.ar    1  UNL1        0.0772
     12 C           9.3862   33.2112    7.7014 C.ar    1  UNL1        0.0273
     13 C          10.0184   32.0093    7.3333 C.ar    1  UNL1        0.0587
     14 CL          9.7390   30.5310    8.1901 Cl      1  UNL1       -0.0822
     15 C          10.9181   31.9716    6.2627 C.ar    1  UNL1        0.0114
     16 C          11.1967   33.1299    5.5405 C.ar    1  UNL1        0.0017
     17 C          10.5730   34.3270    5.8858 C.ar    1  UNL1        0.0114
     18 C           9.6717   34.3687    6.9551 C.ar    1  UNL1        0.0587
     19 CL          8.9501   35.8969    7.3298 Cl      1  UNL1       -0.0822
     20 S           2.7008   32.2348    8.5080 S.3     1  UNL1       -0.0641
     21 C           2.5529   30.6259    9.2597 C.ar    1  UNL1        0.0585
     22 C           3.7092   29.9058    9.5829 C.ar    1  UNL1        0.0111
     23 C           3.6048   28.6447   10.1755 C.ar    1  UNL1        0.0303
     24 C           2.3481   28.1132   10.4498 C.ar    1  UNL1        0.1424
     25 F           2.2549   26.9041   11.0173 F       1  UNL1       -0.2041
     26 C           1.1909   28.8166   10.1482 C.ar    1  UNL1        0.0598
     27 C           1.3015   30.0695    9.5563 C.ar    1  UNL1        0.1483
     28 F           0.1763   30.7456    9.2762 F       1  UNL1       -0.2036
@<TRIPOS>BOND
     1     1     2    2
     2     2     3   ar
     3     2    11   ar
     4     3     4   ar
     5     4     5   ar
     6     5     6   ar
     7     5    10   ar
     8     6     7   ar
     9     7    20    1
    10     7     8   ar
    11    20    21    1
    12    21    22   ar
    13    21    27   ar
    14    22    23   ar
    15    23    24   ar
    16    24    25    1
    17    24    26   ar
    18    26    27   ar
    19    27    28    1
    20     8     9   ar
    21     9    10   ar
    22    10    11   ar
    23    11    12    1
    24    12    13   ar
    25    12    18   ar
    26    13    14    1
    27    13    15   ar
    28    15    16   ar
    29    16    17   ar
    30    17    18   ar
    31    18    19    1



#	Name:			CHEMBL1194
#	Creating user name:	trannguyen
#	Creation time:		Wed Dec  7 14:36:25 2022


#	Modifying user name:	trannguyen
#	Modification time:	Wed Dec  7 14:36:25 2022

@<TRIPOS>MOLECULE
CHEMBL1194
 18 18 0 0 0
SMALL
GASTEIGER

@<TRIPOS>ATOM
      1 C           1.5817   31.4305    8.2755 C.2     1  UNL1        0.2404
      2 O           1.0614   30.4516    7.7199 O.2     1  UNL1       -0.2733
      3 N           2.3673   32.3973    7.6648 N.am    1  UNL1       -0.2831
      4 H           2.8620   33.0053    8.3006 H       1  UNL1        0.1549
      5 C           2.6722   32.4618    6.2912 C.ar    1  UNL1        0.0463
      6 C           1.6498   32.5238    5.3389 C.ar    1  UNL1        0.0144
      7 C           1.9275   32.6027    3.9800 C.ar    1  UNL1        0.0013
      8 C           3.2456   32.6097    3.5498 C.ar    1  UNL1       -0.0002
      9 C           4.2827   32.5548    4.4832 C.ar    1  UNL1       -0.0030
     10 C           4.0165   32.4874    5.8643 C.ar    1  UNL1       -0.0084
     11 C           5.1786   32.4811    6.8200 C.3     1  UNL1        0.0323
     12 C           1.4112   31.6150    9.7800 C.3     1  UNL1        0.1319
     13 C           1.4523   33.1065   10.0892 C.3     1  UNL1        0.0270
     14 N           2.4588   30.8763   10.5237 N.3     1  UNL1       -0.2913
     15 H           2.5468   31.3054   11.4462 H       1  UNL1        0.1236
     16 C           2.0883   29.4596   10.7136 C.3     1  UNL1        0.0689
     17 C           4.5422   29.2794   10.1417 C.3     1  UNL1        0.0015
     18 C           3.2077   28.5467   10.2058 C.3     1  UNL1        0.0171
@<TRIPOS>BOND
     1    17    18    1
     2    18    16    1
     3    16    14    1
     4    14    12    1
     5    14    15    1
     6    12    13    1
     7    12     1    1
     8     1     2    2
     9     1     3   am
    10     3     5    1
    11     3     4    1
    12     5     6   ar
    13     5    10   ar
    14     6     7   ar
    15     7     8   ar
    16     8     9   ar
    17     9    10   ar
    18    10    11    1



#	Name:			CHEMBL119443
#	Creating user name:	trannguyen
#	Creation time:		Wed Dec  7 14:36:25 2022


#	Modifying user name:	trannguyen
#	Modification time:	Wed Dec  7 14:36:25 2022

@<TRIPOS>MOLECULE
CHEMBL119443
 27 30 0 0 0
SMALL
GASTEIGER

@<TRIPOS>ATOM
      1 C           2.4793   32.1954    8.4401 C.3     0  UNK0        0.1140
      2 C           3.9634   32.2936    8.1818 C.2     0  UNK0       -0.0190
      3 C           4.3638   32.7043    6.9598 C.2     0  UNK0       -0.0112
      4 C           5.7648   32.6274    6.5035 C.ar    0  UNK0       -0.0019
      5 C           6.8888   32.1972    7.2220 C.ar    0  UNK0       -0.0002
      6 C           8.1425   32.0932    6.6032 C.ar    0  UNK0        0.0015
      7 C           8.3227   32.4005    5.2473 C.ar    0  UNK0        0.0170
      8 C           7.1980   32.8387    4.5461 C.ar    0  UNK0        0.0563
      9 N           7.0229   33.2110    3.2310 N.ar    0  UNK0       -0.3523
     10 H           7.7525   33.2089    2.5321 H       0  UNK0        0.1660
     11 C           5.7215   33.6037    3.0151 C.ar    0  UNK0        0.0681
     12 C           5.0457   33.4690    4.2061 C.ar    0  UNK0       -0.0021
     13 C           5.9595   32.9654    5.1567 C.ar    0  UNK0        0.0128
     14 C           3.6553   33.7989    4.6025 C.3     0  UNK0        0.0484
     15 C           3.2485   33.1538    5.9765 C.3     0  UNK0        0.0843
     16 N           2.1808   32.1179    5.8611 N.3     0  UNK0       -0.2681
     17 C           2.5782   31.0056    4.9884 C.3     0  UNK0        0.0899
     18 C           1.7674   31.5896    7.1931 C.3     0  UNK0        0.0859
     19 N           2.0543   29.9666    9.3488 N.am    1  ALA1       -0.3032
     20 C           2.2263   31.3079    9.6575 C.2     0  UNK0        0.2275
     21 O           2.1538   31.7353   10.7991 O.2     0  UNK0       -0.2747
     22 H           1.9365   29.7036    8.3802 H       1  ALA1        0.1495
     23 CB          0.2654   28.5990   10.3337 C.3     1  ALA1        0.0239
     24 CA          1.7494   28.9755   10.3866 C.3     1  ALA1        0.1008
     25 C           2.6297   27.7166   10.2442 C.3     1  ALA1        0.1565
     26 O           2.1846   26.6842   11.1245 O.3     1  ALA1       -0.3802
     27 H           1.2788   26.4674   10.8406 H       1  ALA1        0.2105
@<TRIPOS>BOND
     1    23    24    1
     2    24    25    1
     3    24    19    1
     4    25    26    1
     5    26    27    1
     6    19    20   am
     7    19    22    1
     8    20    21    2
     9    20     1    1
    10     1     2    1
    11     1    18    1
    12     2     3    2
    13     3     4    1
    14     3    15    1
    15     4     5   ar
    16     4    13   ar
    17     5     6   ar
    18     6     7   ar
    19     7     8   ar
    20     8     9   ar
    21     8    13   ar
    22     9    11   ar
    23     9    10    1
    24    11    12   ar
    25    12    13   ar
    26    12    14    1
    27    14    15    1
    28    15    16    1
    29    16    18    1
    30    16    17    1



#	Name:			CHEMBL1196
#	Creating user name:	trannguyen
#	Creation time:		Wed Dec  7 14:36:25 2022


#	Modifying user name:	trannguyen
#	Modification time:	Wed Dec  7 14:36:25 2022

@<TRIPOS>MOLECULE
CHEMBL1196
 23 23 0 0 0
SMALL
GASTEIGER

@<TRIPOS>ATOM
      1 C           2.5950   30.5928    9.3830 C.ar    1  UNL1        0.1513
      2 C           1.3431   30.5540    8.7572 C.ar    1  UNL1        0.0384
      3 C           1.1725   31.1134    7.4884 C.ar    1  UNL1        0.0096
      4 C           2.2575   31.7383    6.8472 C.ar    1  UNL1        0.0771
      5 C           3.5109   31.7392    7.4590 C.ar    1  UNL1        0.0236
      6 C           3.6849   31.2191    8.7433 C.ar    1  UNL1        0.0762
      7 N           4.9893   31.1177    9.2646 N.pl3   1  UNL1       -0.3546
      8 H           5.6115   31.8642    8.9740 H       1  UNL1        0.1424
      9 H           4.9720   30.9807   10.2737 H       1  UNL1        0.1424
     10 C           2.0356   32.3054    5.5154 C.2     1  UNL1        0.3413
     11 O           0.9855   32.1947    4.8873 O.2     1  UNL1       -0.2449
     12 O           3.1571   32.9490    5.1114 O.3     1  UNL1       -0.4439
     13 C           3.3778   32.9478    3.6929 C.3     1  UNL1        0.2260
     14 C           4.8430   33.3279    3.4263 C.3     1  UNL1        0.1202
     15 N           5.7634   32.2244    3.1136 N.3     1  UNL1       -0.2696
     16 C           6.8733   32.6805    2.2498 C.3     1  UNL1        0.0722
     17 C           7.7030   31.5697    1.6114 C.3     1  UNL1        0.0188
     18 C           6.2985   31.5713    4.3284 C.3     1  UNL1        0.0722
     19 C           6.6720   32.4943    5.4903 C.3     1  UNL1        0.0188
     20 O           2.8372   30.1118   10.6498 O.3     1  UNL1       -0.4742
     21 C           2.2039   28.8733   10.9746 C.3     1  UNL1        0.2055
     22 C           4.3044   27.7580   10.1613 C.3     1  UNL1        0.0040
     23 C           2.7872   27.7824   10.0830 C.3     1  UNL1        0.0473
@<TRIPOS>BOND
     1    22    23    1
     2    23    21    1
     3    21    20    1
     4    20     1    1
     5     1     2   ar
     6     1     6   ar
     7     2     3   ar
     8     3     4   ar
     9     4    10    1
    10     4     5   ar
    11    10    11    2
    12    10    12    1
    13    12    13    1
    14    13    14    1
    15    14    15    1
    16    15    16    1
    17    15    18    1
    18    16    17    1
    19    18    19    1
    20     5     6   ar
    21     6     7    1
    22     7     8    1
    23     7     9    1



#	Name:			CHEMBL12
#	Creating user name:	trannguyen
#	Creation time:		Wed Dec  7 14:36:25 2022


#	Modifying user name:	trannguyen
#	Modification time:	Wed Dec  7 14:36:25 2022

@<TRIPOS>MOLECULE
CHEMBL12
 20 22 0 0 0
SMALL
GASTEIGER

@<TRIPOS>ATOM
      1 C           2.2255   28.0004    9.8185 C.3     1  UNL1        0.1201
      2 N           2.0758   29.3989    9.4382 N.am    1  UNL1       -0.2552
      3 C           0.7763   29.9205    9.4734 C.2     1  UNL1        0.2542
      4 O          -0.2060   29.2231    9.7446 O.2     1  UNL1       -0.2724
      5 C           0.6213   31.4204    9.2641 C.3     1  UNL1        0.2104
      6 N           0.9085   31.7463    7.8712 N.2     1  UNL1       -0.2605
      7 C           2.1314   31.6591    7.4691 C.2     1  UNL1        0.0777
      8 C           3.2780   31.3050    8.3563 C.ar    1  UNL1        0.0318
      9 C           4.4361   32.0982    8.2496 C.ar    1  UNL1        0.0141
     10 C           5.5826   31.7591    8.9578 C.ar    1  UNL1        0.0578
     11 CL          6.9983   32.7226    8.8110 Cl      1  UNL1       -0.0822
     12 C           5.5910   30.6363    9.7739 C.ar    1  UNL1        0.0127
     13 C           4.4337   29.8609    9.9020 C.ar    1  UNL1        0.0158
     14 C           3.2460   30.1924    9.2212 C.ar    1  UNL1        0.0554
     15 C           2.3994   31.9413    6.0218 C.ar    1  UNL1        0.0173
     16 C           2.5742   30.9030    5.0977 C.ar    1  UNL1        0.0015
     17 C           2.8226   31.1981    3.7554 C.ar    1  UNL1        0.0000
     18 C           2.8853   32.5253    3.3308 C.ar    1  UNL1        0.0000
     19 C           2.6915   33.5613    4.2437 C.ar    1  UNL1        0.0000
     20 C           2.4435   33.2712    5.5863 C.ar    1  UNL1        0.0015
@<TRIPOS>BOND
     1     1     2    1
     2     2     3   am
     3     2    14    1
     4     3     4    2
     5     3     5    1
     6     5     6    1
     7     6     7    2
     8     7    15    1
     9     7     8    1
    10    15    16   ar
    11    15    20   ar
    12    16    17   ar
    13    17    18   ar
    14    18    19   ar
    15    19    20   ar
    16     8     9   ar
    17     8    14   ar
    18     9    10   ar
    19    10    11    1
    20    10    12   ar
    21    12    13   ar
    22    13    14   ar



#	Name:			CHEMBL1200391
#	Creating user name:	trannguyen
#	Creation time:		Wed Dec  7 14:36:25 2022


#	Modifying user name:	trannguyen
#	Modification time:	Wed Dec  7 14:36:25 2022

@<TRIPOS>MOLECULE
CHEMBL1200391
 13 12 0 0 0
SMALL
GASTEIGER

@<TRIPOS>ATOM
      1 N           1.8731   30.7754   11.2157 N.3     1  UNL1       -0.3174
      2 C           1.8439   29.5654   10.3362 C.3     1  UNL1        0.1209
      3 H           2.5942   31.3978   10.8327 H       1  UNL1        0.1190
      4 H           2.2689   30.4674   12.1113 H       1  UNL1        0.1190
      5 C           0.9643   29.9064    9.1130 C.3     1  UNL1        0.1561
      6 O           0.0625   30.9664    9.4307 O.3     1  UNL1       -0.3804
      7 H           0.6185   31.6129    9.9162 H       1  UNL1        0.2105
      8 C           3.2854   29.2115    9.8913 C.3     1  UNL1        0.1561
      9 O           4.2366   29.5353   10.9096 O.3     1  UNL1       -0.3804
     10 H           4.4175   30.4915   10.8592 H       1  UNL1        0.2105
     11 C           1.2244   28.3825   11.1202 C.3     1  UNL1        0.1561
     12 O           2.0980   27.9689   12.1742 O.3     1  UNL1       -0.3804
     13 H           1.6334   27.2669   12.6632 H       1  UNL1        0.2105
@<TRIPOS>BOND
     1     1     2    1
     2     1     3    1
     3     1     4    1
     4     2     5    1
     5     2     8    1
     6     2    11    1
     7     5     6    1
     8     6     7    1
     9     8     9    1
    10     9    10    1
    11    11    12    1
    12    12    13    1



#	Name:			CHEMBL1200406
#	Creating user name:	trannguyen
#	Creation time:		Wed Dec  7 14:36:25 2022


#	Modifying user name:	trannguyen
#	Modification time:	Wed Dec  7 14:36:25 2022

@<TRIPOS>MOLECULE
CHEMBL1200406
 19 20 0 0 0
SMALL
GASTEIGER

@<TRIPOS>ATOM
      1 C           2.3219   31.7054    8.6212 C.3     1  UNL1        0.1598
      2 C           2.8466   31.7773    7.1812 C.ar    1  UNL1        0.0087
      3 C           2.1165   31.2346    6.1115 C.ar    1  UNL1       -0.0016
      4 C           2.6445   31.2060    4.8157 C.ar    1  UNL1       -0.0002
      5 C           3.8892   31.7716    4.5516 C.ar    1  UNL1       -0.0000
      6 C           4.6007   32.3786    5.5831 C.ar    1  UNL1       -0.0002
      7 C           4.0896   32.3735    6.8891 C.ar    1  UNL1       -0.0016
      8 C           2.6318   30.3599    9.3019 C.ar    1  UNL1        0.0087
      9 C           3.9447   30.0009    9.6666 C.ar    1  UNL1       -0.0016
     10 C           4.2202   28.7565   10.2563 C.ar    1  UNL1       -0.0002
     11 C           3.1928   27.8444   10.4843 C.ar    1  UNL1       -0.0000
     12 C           1.8872   28.1843   10.1434 C.ar    1  UNL1       -0.0002
     13 C           1.6093   29.4326    9.5726 C.ar    1  UNL1       -0.0016
     14 O           2.8434   32.7689    9.4660 O.3     1  UNL1       -0.3459
     15 C           1.8770   33.4496   10.2862 C.3     1  UNL1        0.1602
     16 C           2.0762   34.9879   10.1663 C.3     1  UNL1        0.1047
     17 C           0.8598   37.0634    9.8615 C.3     1  UNL1        0.0897
     18 N           0.9664   35.8357   10.6628 N.3     1  UNL1       -0.2682
     19 C          -0.3229   35.1430   10.6344 C.3     1  UNL1        0.0897
@<TRIPOS>BOND
     1    17    18    1
     2    18    19    1
     3    18    16    1
     4    16    15    1
     5    15    14    1
     6    14     1    1
     7     1     2    1
     8     1     8    1
     9     2     3   ar
    10     2     7   ar
    11     3     4   ar
    12     4     5   ar
    13     5     6   ar
    14     6     7   ar
    15     8     9   ar
    16     8    13   ar
    17     9    10   ar
    18    10    11   ar
    19    11    12   ar
    20    12    13   ar



#	Name:			CHEMBL1200558
#	Creating user name:	trannguyen
#	Creation time:		Wed Dec  7 14:36:25 2022


#	Modifying user name:	trannguyen
#	Modification time:	Wed Dec  7 14:36:25 2022

@<TRIPOS>MOLECULE
CHEMBL1200558
 120 123 0 0 0
SMALL
GASTEIGER

@<TRIPOS>ATOM
      1 C           7.2005   34.2387    1.9850 C.3     1  UNL1        0.1486
      2 C           7.2199   32.9130    1.1344 C.3     1  UNL1        0.0290
      3 C           7.6706   33.0300   -0.3879 C.3     1  UNL1        0.0040
      4 C           8.9336   32.3032   -1.0353 C.3     1  UNL1        0.0213
      5 C          10.3323   32.8567   -1.6847 C.3     1  UNL1        0.0894
      6 N          11.4295   33.5683   -0.8905 N.am    1  UNL1       -0.3030
      7 C          12.7892   33.1254   -0.7601 C.2     1  UNL1        0.2408
      8 O          13.1021   31.9564   -0.9812 O.2     1  UNL1       -0.2733
      9 C          13.9528   34.2298   -0.2502 C.3     1  UNL1        0.1577
     10 N          14.5106   34.2120    1.2247 N.am    1  UNL1       -0.2966
     11 C          14.9816   35.3594    1.8977 C.2     1  UNL1        0.2412
     12 O          14.9786   36.4400    1.2923 O.2     1  UNL1       -0.2733
     13 C          15.5741   35.3153    3.4489 C.3     1  UNL1        0.1598
     14 N          14.6774   35.0090    4.6388 N.am    1  UNL1       -0.2965
     15 C          15.2137   34.3012    5.7310 C.2     1  UNL1        0.2410
     16 O          15.8692   33.2892    5.4813 O.2     1  UNL1       -0.2733
     17 C          15.0459   34.8410    7.2679 C.3     1  UNL1        0.1545
     18 N          13.6129   34.7389    7.8755 N.am    1  UNL1       -0.2967
     19 C          13.1711   35.2708    9.1080 C.2     1  UNL1        0.2410
     20 O          13.9901   35.8342    9.8432 O.2     1  UNL1       -0.2733
     21 C          11.5299   35.1052    9.6162 C.3     1  UNL1        0.1530
     22 N          10.6909   34.0416    8.9797 N.am    1  UNL1       -0.2967
     23 C           9.3900   34.1279    8.5148 C.2     1  UNL1        0.2406
     24 O           9.0109   35.1301    7.9029 O.2     1  UNL1       -0.2733
     25 C           8.4313   32.8261    8.6907 C.3     1  UNL1        0.1485
     26 N           7.1868   33.0634    7.8659 N.am    1  UNL1       -0.2970
     27 C           6.8374   32.3409    6.7312 C.2     1  UNL1        0.2406
     28 O           7.3746   31.2682    6.4571 O.2     1  UNL1       -0.2733
     29 C           5.7581   32.9872    5.7566 C.3     1  UNL1        0.1486
     30 N           6.3464   33.0438    4.3116 N.am    1  UNL1       -0.2970
     31 C           6.4035   34.1675    3.4770 C.2     1  UNL1        0.2406
     32 O           5.8176   35.1956    3.8421 O.2     1  UNL1       -0.2733
     33 H          11.3776   34.5692   -1.0278 H       1  UNL1        0.1495
     34 H          14.7419   33.3027    1.6165 H       1  UNL1        0.1499
     35 H          14.0081   35.7413    4.8331 H       1  UNL1        0.1499
     36 H          12.8845   34.6880    7.1777 H       1  UNL1        0.1499
     37 H          11.0673   33.1082    9.0814 H       1  UNL1        0.1499
     38 H           6.7828   33.9873    7.9705 H       1  UNL1        0.1499
     39 H           6.7445   32.1662    4.0053 H       1  UNL1        0.1499
     40 C           8.4494   36.2223    0.8373 C.2     1  UNL1        0.2406
     41 O           7.4290   36.2438    0.1441 O.2     1  UNL1       -0.2733
     42 N           8.4729   35.1512    1.7051 N.am    1  UNL1       -0.2970
     43 H           9.3343   34.9915    2.1924 H       1  UNL1        0.1499
     44 C           9.7097   37.2640    0.4833 C.3     1  UNL1        0.1485
     45 C          10.5645   36.5451   -2.0575 C.2     1  UNL1        0.2406
     46 O          11.6278   36.2970   -2.6363 O.2     1  UNL1       -0.2733
     47 N          10.6851   36.9079   -0.7045 N.am    1  UNL1       -0.2970
     48 H          11.6797   36.8181   -0.4675 H       1  UNL1        0.1499
     49 C           9.0884   36.4434   -2.7666 C.3     1  UNL1        0.1491
     50 C           7.9809   34.4096   -4.6981 C.2     1  UNL1        0.2406
     51 O           7.3431   33.3357   -4.5373 O.2     1  UNL1       -0.2733
     52 N           8.4375   35.0263   -3.4688 N.am    1  UNL1       -0.2970
     53 H           8.0150   34.5188   -2.6809 H       1  UNL1        0.1499
     54 C           8.2626   34.8247   -6.3972 C.3     1  UNL1        0.1486
     55 C           6.7861   36.2969   -8.3972 C.2     1  UNL1        0.2460
     56 O           6.7965   35.3774   -9.2203 O.2     1  UNL1       -0.2730
     57 N           7.3509   36.1270   -7.0772 N.am    1  UNL1       -0.2967
     58 H           7.2405   36.9467   -6.4869 H       1  UNL1        0.1499
     59 C           5.6143   39.8234   -7.8710 C.2     1  UNL1        0.0934
     60 N           5.3196   38.5568   -7.9663 N.2     1  UNL1       -0.2590
     61 C           6.3266   37.8064   -8.8770 C.3     1  UNL1        0.1902
     62 C           7.3799   38.7728   -9.3908 C.3     1  UNL1        0.0970
     63 S           7.2612   40.1802   -8.3111 S.3     1  UNL1       -0.0958
     64 C           4.6343   40.9844   -7.3788 C.3     1  UNL1        0.0972
     65 N           3.3256   40.7798   -8.0331 N.3     1  UNL1       -0.3172
     66 H           2.9710   39.8803   -7.7209 H       1  UNL1        0.1192
     67 H           2.6572   41.4855   -7.7256 H       1  UNL1        0.1192
     68 C           4.3577   41.2838   -5.8503 C.3     1  UNL1        0.0205
     69 C           5.4584   40.8140   -4.8824 C.3     1  UNL1        0.0018
     70 C           3.3564   42.9297   -4.1513 C.3     1  UNL1        0.0001
     71 C           3.9569   42.7432   -5.5295 C.3     1  UNL1        0.0017
     72 C           9.7374   34.9773   -7.0633 C.3     1  UNL1        0.0290
     73 C          11.1792   34.4975   -6.5396 C.3     1  UNL1        0.0021
     74 C          11.7896   35.7538   -6.2969 C.3     1  UNL1        0.0001
     75 C          11.6563   33.8478   -5.2435 C.3     1  UNL1        0.0001
     76 C           8.1364   37.8059   -2.9417 C.3     1  UNL1        0.0406
     77 C           8.8790   39.0443   -3.5964 C.3     1  UNL1        0.1116
     78 C           9.6658   38.6923   -4.8522 C.2     1  UNL1        0.3139
     79 O           9.1793   38.2570   -5.8788 O.2     1  UNL1       -0.2503
     80 O          11.0016   38.7391   -4.6835 O.3     1  UNL1       -0.4802
     81 H          11.4043   38.4975   -5.5452 H       1  UNL1        0.2951
     82 C           9.7148   38.8560    0.7525 C.3     1  UNL1        0.0269
     83 C          11.0956   39.4480    0.3568 C.3     1  UNL1        0.0022
     84 C           8.6667   39.8127    0.1412 C.3     1  UNL1        0.0021
     85 C           9.1843   41.1861   -0.2090 C.3     1  UNL1        0.0001
     86 C           8.0693   32.3231   10.1583 C.3     1  UNL1        0.0269
     87 C           8.3938   33.3331   11.2872 C.3     1  UNL1        0.0022
     88 C           6.6177   31.9026   10.3997 C.3     1  UNL1        0.0021
     89 C           6.2292   30.4697   10.1323 C.3     1  UNL1        0.0001
     90 C          16.1358   36.7415    3.7538 C.3     1  UNL1        0.1382
     91 C          15.2125   37.6734    4.5341 C.2     1  UNL1        0.3160
     92 O          14.2188   38.1247    4.1568 O.2     1  UNL1       -0.2502
     93 O          15.6791   37.9318    5.7861 O.3     1  UNL1       -0.4801
     94 H          15.0156   38.5739    6.1185 H       1  UNL1        0.2951
     95 C          15.1427   34.2148   -1.2751 C.3     1  UNL1        0.1137
     96 C          16.3191   33.3322   -0.8805 C.2     1  UNL1        0.2216
     97 N          16.3127   32.0494   -1.3557 N.am    1  UNL1       -0.3287
     98 O          17.2921   33.7393   -0.2538 O.2     1  UNL1       -0.2753
     99 H          15.9897   31.9001   -2.3051 H       1  UNL1        0.1449
    100 H          17.1820   31.5623   -1.1521 H       1  UNL1        0.1449
    101 C          16.3234   34.3234    8.1446 C.3     1  UNL1        0.0741
    102 C          16.2998   32.9748    8.8638 C.ar    1  UNL1        0.0563
    103 C          16.5493   32.6014   10.1704 C.ar    1  UNL1        0.1131
    104 N          16.3034   31.2679   10.3915 N.ar    1  UNL1       -0.2229
    105 C          15.8599   30.8057    9.2499 C.ar    1  UNL1        0.1748
    106 N          15.9120   31.7706    8.2754 N.ar    1  UNL1       -0.3381
    107 H          15.6538   31.6006    7.3129 H       1  UNL1        0.1672
    108 C          10.8176   36.4568   10.1832 C.3     1  UNL1        0.0553
    109 C          10.7668   37.9059    9.5908 C.ar    1  UNL1       -0.0200
    110 C          10.7342   38.2330    8.2253 C.ar    1  UNL1       -0.0042
    111 C          10.5495   39.5732    7.7661 C.ar    1  UNL1       -0.0003
    112 C          10.2468   40.6030    8.6486 C.ar    1  UNL1       -0.0000
    113 C          10.2214   40.3046   10.0009 C.ar    1  UNL1       -0.0003
    114 C          10.5375   39.0016   10.4565 C.ar    1  UNL1       -0.0042
    115 C           4.3871   32.2209    5.9037 C.3     1  UNL1        0.0304
    116 C           3.5295   31.9872    4.6380 C.3     1  UNL1        0.0190
    117 C           2.4384   33.0124    4.2959 C.3     1  UNL1        0.0652
    118 N           2.8780   34.3715    4.0688 N.3     1  UNL1       -0.3211
    119 H           3.5992   34.4175    3.3403 H       1  UNL1        0.1189
    120 H           3.3863   34.7544    4.8593 H       1  UNL1        0.1189
@<TRIPOS>BOND
     1    70    71    1
     2    68    69    1
     3    68    71    1
     4    64    65    1
     5    64    59    1
     6    64    68    1
     7    65    66    1
     8    65    67    1
     9    59    60    2
    10    59    63    1
    11    60    61    1
    12    61    55    1
    13    61    62    1
    14    55    56    2
    15    55    57   am
    16    57    54    1
    17    57    58    1
    18    54    72    1
    19    54    50    1
    20    72    73    1
    21    73    74    1
    22    73    75    1
    23    50    51    2
    24    50    52   am
    25    52    53    1
    26    49    76    1
    27    49    45    1
    28    49    52    1
    29    76    77    1
    30    77    78    1
    31    78    79    2
    32    78    80    1
    33    80    81    1
    34    45    46    2
    35    45    47   am
    36    47    48    1
    37    44    40    1
    38    44    82    1
    39    44    47    1
    40    40    41    2
    41    40    42   am
    42    42    43    1
    43     1     2    1
    44     1    31    1
    45     1    42    1
    46     2     3    1
    47     3     4    1
    48     4     5    1
    49     5     6    1
    50     6     7   am
    51     6    33    1
    52     7     8    2
    53     7     9    1
    54     9    10    1
    55     9    95    1
    56    95    96    1
    57    96    97   am
    58    96    98    2
    59    97    99    1
    60    97   100    1
    61    10    11   am
    62    10    34    1
    63    11    12    2
    64    11    13    1
    65    13    90    1
    66    13    14    1
    67    90    91    1
    68    91    92    2
    69    91    93    1
    70    93    94    1
    71    14    15   am
    72    14    35    1
    73    15    16    2
    74    15    17    1
    75    17    18    1
    76    17   101    1
    77   101   102    1
    78   102   103   ar
    79   102   106   ar
    80   103   104   ar
    81   104   105   ar
    82   105   106   ar
    83   106   107    1
    84    18    19   am
    85    18    36    1
    86    19    20    2
    87    19    21    1
    88    21   108    1
    89    21    22    1
    90   108   109    1
    91   109   110   ar
    92   109   114   ar
    93   110   111   ar
    94   111   112   ar
    95   112   113   ar
    96   113   114   ar
    97    22    23   am
    98    22    37    1
    99    23    24    2
   100    23    25    1
   101    25    26    1
   102    25    86    1
   103    86    87    1
   104    86    88    1
   105    88    89    1
   106    26    27   am
   107    26    38    1
   108    27    28    2
   109    27    29    1
   110    29   115    1
   111    29    30    1
   112   115   116    1
   113   116   117    1
   114   117   118    1
   115   118   119    1
   116   118   120    1
   117    30    31   am
   118    30    39    1
   119    31    32    2
   120    82    83    1
   121    82    84    1
   122    84    85    1
   123    62    63    1



#	Name:			CHEMBL1200559
#	Creating user name:	trannguyen
#	Creation time:		Wed Dec  7 14:36:25 2022


#	Modifying user name:	trannguyen
#	Modification time:	Wed Dec  7 14:36:25 2022

@<TRIPOS>MOLECULE
CHEMBL1200559
 8 7 0 0 0
SMALL
GASTEIGER

@<TRIPOS>ATOM
      1 C           1.1507   29.7679    9.1917 C.3     1  UNL1        0.0439
      2 C           1.9097   29.5252   10.4823 C.3     1  UNL1        0.2095
      3 O           1.8566   30.7084   11.2990 O.3     1  UNL1       -0.3744
      4 H           2.2620   31.4260   10.7761 H       1  UNL1        0.2110
      5 C           1.2882   28.3692   11.2682 C.2     1  UNL1        0.3409
      6 O           1.8681   27.6904   12.1007 O.2     1  UNL1       -0.2476
      7 O          -0.0129   28.1833   10.9247 O.3     1  UNL1       -0.4785
      8 H          -0.2205   28.8521   10.2270 H       1  UNL1        0.2951
@<TRIPOS>BOND
     1     1     2    1
     2     2     3    1
     3     2     5    1
     4     3     4    1
     5     5     6    2
     6     5     7    1
     7     7     8    1



#	Name:			CHEMBL1200585
#	Creating user name:	trannguyen
#	Creation time:		Wed Dec  7 14:36:25 2022


#	Modifying user name:	trannguyen
#	Modification time:	Wed Dec  7 14:36:25 2022

@<TRIPOS>MOLECULE
CHEMBL1200585
 26 29 0 0 0
SMALL
GASTEIGER

@<TRIPOS>ATOM
      1 C           1.0827   30.2668    9.6814 C.3     1  UNL1        0.0003
      2 C           2.1084   31.3581    9.3299 C.3     1  UNL1        0.0047
      3 C           1.6549   32.6554   10.0460 C.3     1  UNL1        0.0324
      4 C           2.7091   33.5965    9.6537 C.2     1  UNL1        0.0491
      5 C           2.7839   34.8891    9.4619 C.2     1  UNL1        0.1659
      6 O           3.9357   35.5731    9.0718 O.2     1  UNL1       -0.5030
      7 C           3.8895   32.7448    9.3396 C.2     1  UNL1        0.1721
      8 O           4.9188   33.2938    9.7902 O.2     1  UNL1       -0.2916
      9 C           3.7194   30.9945    8.4954 C.3     1  UNL1        0.0689
     10 C           3.9109   30.8538    9.8467 C.3     1  UNL1        0.0080
     11 C           5.4665   31.2508    8.8787 C.3     1  UNL1        0.0005
     12 C           5.0348   32.3047    7.3244 C.3     1  UNL1        0.0000
     13 C           3.2507   32.7470    6.9296 C.3     1  UNL1        0.0001
     14 C           2.0119   31.8038    7.4953 C.3     1  UNL1        0.0003
     15 C           1.9075   30.6819    6.3612 C.3     1  UNL1        0.0001
     16 C           2.7332   30.8772    4.9665 C.3     1  UNL1        0.0022
     17 C           3.0701   32.3303    4.3942 C.3     1  UNL1        0.0226
     18 C           2.3141   32.4539    3.0386 C.3     1  UNL1        0.0023
     19 C           2.6210   33.2132    5.5362 C.3     1  UNL1        0.0022
     20 C           3.0193   34.6212    5.2026 C.3     1  UNL1        0.0025
     21 C           4.4830   34.3982    4.8963 C.3     1  UNL1        0.0269
     22 C           4.5140   33.0129    4.1352 C.3     1  UNL1        0.0883
     23 C           5.7051   32.0889    4.3164 C.3     1  UNL1        0.0293
     24 O           4.6982   33.4671    2.7732 O.3     1  UNL1       -0.3867
     25 H           4.6978   34.9643    9.2295 H       1  UNL1        0.2923
     26 H           5.5446   33.9559    2.7622 H       1  UNL1        0.2102
@<TRIPOS>BOND
     1     2     3    1
     2     2    10    1
     3     2    14    1
     4     2     1    1
     5     3     4    1
     6     4     7    1
     7     4     5    2
     8     5     6    1
     9     6    25    1
    10     7     9    1
    11     7     8    2
    12     9    10    1
    13    10    11    1
    14    11    12    1
    15    12    13    1
    16    13    14    1
    17    13    19    1
    18    14    15    1
    19    15    16    1
    20    16    17    1
    21    17    19    1
    22    17    22    1
    23    17    18    1
    24    19    20    1
    25    20    21    1
    26    21    22    1
    27    22    24    1
    28    22    23    1
    29    24    26    1



#	Name:			CHEMBL1200600
#	Creating user name:	trannguyen
#	Creation time:		Wed Dec  7 14:36:25 2022


#	Modifying user name:	trannguyen
#	Modification time:	Wed Dec  7 14:36:25 2022

@<TRIPOS>MOLECULE
CHEMBL1200600
 29 32 0 0 0
SMALL
GASTEIGER

@<TRIPOS>ATOM
      1 C           1.9462   32.0428    9.9716 C.3     1  UNL1        0.1389
      2 O           1.9930   31.1411   11.0786 O.3     1  UNL1       -0.3798
      3 C           0.7193   31.6719    9.0912 C.3     1  UNL1        0.0341
      4 C           1.2249   31.5217    7.6494 C.3     1  UNL1        0.0030
      5 C           2.5744   32.2257    7.6524 C.3     1  UNL1        0.0054
      6 C           3.5369   31.9498    6.4855 C.3     1  UNL1        0.0334
      7 C           2.8642   32.2398    5.1362 C.3     1  UNL1        0.0068
      8 C           3.7833   31.9748    3.9401 C.3     1  UNL1        0.0189
      9 C           3.9183   30.4842    3.6157 C.3     1  UNL1        0.0044
     10 C           5.1166   32.6816    4.1147 C.2     1  UNL1       -0.0357
     11 C           5.5477   33.4647    3.1054 C.2     1  UNL1        0.0339
     12 C           6.7621   34.2956    3.2003 C.2     1  UNL1        0.1948
     13 O           7.1634   34.9518    2.2492 O.2     1  UNL1       -0.2866
     14 C           7.4576   34.3109    4.4955 C.2     1  UNL1        0.0378
     15 C           7.0433   33.5369    5.5067 C.2     1  UNL1       -0.0171
     16 C           5.8613   32.5615    5.4686 C.3     1  UNL1        0.0637
     17 C           6.5181   31.1640    5.5745 C.3     1  UNL1        0.0112
     18 C           4.8366   32.8072    6.6603 C.3     1  UNL1        0.1644
     19 F           4.4386   34.1302    6.5833 F       1  UNL1       -0.2369
     20 C           5.4307   32.6428    8.1016 C.3     1  UNL1        0.1409
     21 O           6.4100   33.6503    8.3798 O.3     1  UNL1       -0.3817
     22 C           4.3886   32.7538    9.2361 C.3     1  UNL1        0.0347
     23 C           3.1746   31.8381    9.0215 C.3     1  UNL1        0.0314
     24 C           3.6463   30.3582    9.1062 C.3     1  UNL1        0.0028
     25 H           1.1032   31.1002   11.4733 H       1  UNL1        0.2108
     26 H           6.0048   34.5037    8.1247 H       1  UNL1        0.2104
     27 C           0.4885   34.1731   10.3807 C.3     1  UNL1        0.0748
     28 C           1.8291   33.4887   10.5185 C.2     1  UNL1        0.1749
     29 O           2.7746   34.0711   11.0527 O.2     1  UNL1       -0.2936
@<TRIPOS>BOND
     1    27    28    1
     2    28    29    2
     3     1     3    1
     4     1    23    1
     5     1     2    1
     6     1    28    1
     7     2    25    1
     8     3     4    1
     9     4     5    1
    10     5     6    1
    11     5    23    1
    12     6     7    1
    13     6    18    1
    14     7     8    1
    15     8     9    1
    16     8    10    1
    17    10    11    2
    18    10    16    1
    19    11    12    1
    20    12    13    2
    21    12    14    1
    22    14    15    2
    23    15    16    1
    24    16    17    1
    25    16    18    1
    26    18    19    1
    27    18    20    1
    28    20    22    1
    29    20    21    1
    30    21    26    1
    31    22    23    1
    32    23    24    1



#	Name:			CHEMBL1200623
#	Creating user name:	trannguyen
#	Creation time:		Wed Dec  7 14:36:25 2022


#	Modifying user name:	trannguyen
#	Modification time:	Wed Dec  7 14:36:25 2022

@<TRIPOS>MOLECULE
CHEMBL1200623
 22 25 0 0 0
SMALL
GASTEIGER

@<TRIPOS>ATOM
      1 C           9.2319   32.6418    7.3427 C.3     1  UNL1        0.0882
      2 O           9.4886   32.1894    6.0042 O.3     1  UNL1       -0.3867
      3 C           8.5022   33.9832    7.2236 C.3     1  UNL1        0.0269
      4 C           7.1142   33.5799    6.7542 C.3     1  UNL1        0.0025
      5 C           6.7661   32.3114    7.5595 C.3     1  UNL1        0.0023
      6 C           5.7925   32.6429    8.7260 C.3     1  UNL1        0.0007
      7 C           4.3854   33.0613    8.2516 C.3     1  UNL1        0.0043
      8 C           3.5667   31.8982    7.7092 C.3     1  UNL1        0.0217
      9 C           3.4664   30.7944    8.7258 C.2     1  UNL1       -0.0488
     10 C           2.2758   30.2644    9.0612 C.2     1  UNL1       -0.0346
     11 C           2.1122   29.1044    9.9944 C.3     1  UNL1        0.0254
     12 C           3.4197   28.3518   10.2163 C.3     1  UNL1        0.0050
     13 C           4.5632   29.3228   10.4878 C.3     1  UNL1        0.0044
     14 C           4.7838   30.3117    9.3151 C.3     1  UNL1        0.0180
     15 C           5.6852   31.5038    9.7694 C.3     1  UNL1        0.0037
     16 C           7.0743   31.0395   10.2531 C.3     1  UNL1        0.0004
     17 C           8.2425   31.7476    9.5691 C.3     1  UNL1        0.0023
     18 C           8.1533   31.7163    8.0238 C.3     1  UNL1        0.0226
     19 C           8.2741   30.2581    7.5223 C.3     1  UNL1        0.0023
     20 H          10.0851   32.8285    5.5783 H       1  UNL1        0.2102
     21 C          11.6580   31.8096    7.6762 C.3     1  UNL1        0.0025
     22 C          10.5897   32.8300    8.0475 C.3     1  UNL1        0.0269
@<TRIPOS>BOND
     1    21    22    1
     2     1     3    1
     3     1    18    1
     4     1    22    1
     5     1     2    1
     6     2    20    1
     7     3     4    1
     8     4     5    1
     9     5     6    1
    10     5    18    1
    11     6     7    1
    12     6    15    1
    13     7     8    1
    14     8     9    1
    15     9    10    2
    16     9    14    1
    17    10    11    1
    18    11    12    1
    19    12    13    1
    20    13    14    1
    21    14    15    1
    22    15    16    1
    23    16    17    1
    24    17    18    1
    25    18    19    1



#	Name:			CHEMBL1200624
#	Creating user name:	trannguyen
#	Creation time:		Wed Dec  7 14:36:25 2022


#	Modifying user name:	trannguyen
#	Modification time:	Wed Dec  7 14:36:25 2022

@<TRIPOS>MOLECULE
CHEMBL1200624
 28 31 0 0 0
SMALL
GASTEIGER

@<TRIPOS>ATOM
      1 C          11.4474   32.1463    8.9246 C.3     1  UNL1        0.1888
      2 C          10.9087   32.7597   10.2670 C.3     1  UNL1        0.0529
      3 C           9.9012   33.7944    9.7704 C.3     1  UNL1        0.0048
      4 C           9.0391   32.9423    8.8415 C.3     1  UNL1        0.0044
      5 C           8.0037   32.1451    9.7186 C.3     1  UNL1        0.0008
      6 C           6.9702   33.0752   10.3759 C.3     1  UNL1        0.0043
      7 C           5.8331   33.3885    9.4262 C.3     1  UNL1        0.0218
      8 C           5.0550   32.1230    9.2770 C.2     1  UNL1       -0.0454
      9 C           3.7552   32.0895    9.6153 C.2     1  UNL1        0.0082
     10 C           2.9222   30.8448    9.7098 C.3     1  UNL1        0.1903
     11 C           3.7245   29.5373    9.6234 C.3     1  UNL1        0.0486
     12 C           5.2425   29.7033    9.7496 C.3     1  UNL1        0.0081
     13 C           5.8053   30.8657    8.8985 C.3     1  UNL1        0.0182
     14 C           7.3650   30.9093    9.0394 C.3     1  UNL1        0.0037
     15 C           8.0726   30.5584    7.7187 C.3     1  UNL1        0.0005
     16 C           9.5908   30.6235    7.9030 C.3     1  UNL1        0.0043
     17 C          10.1237   32.0811    8.0694 C.3     1  UNL1        0.0445
     18 C          10.3778   32.6568    6.6649 C.3     1  UNL1        0.0045
     19 C          13.4648   33.8028    8.5712 C.1     1  UNL1       -0.0108
     20 C          12.5532   33.0544    8.7308 C.1     1  UNL1       -0.0397
     21 O          11.9613   30.8144    9.1120 O.3     1  UNL1       -0.4433
     22 C          12.8881   30.5415   10.0790 C.2     1  UNL1        0.3182
     23 C          14.1813   30.3018    9.3520 C.3     1  UNL1        0.1212
     24 O          12.7474   30.6031   11.2806 O.2     1  UNL1       -0.2501
     25 O           1.9923   30.9033    8.6163 O.3     1  UNL1       -0.4477
     26 C           0.6894   31.0542    8.9753 C.2     1  UNL1        0.3177
     27 C           0.1235   29.7451    9.4330 C.3     1  UNL1        0.1212
     28 O           0.0316   32.0806    8.8689 O.2     1  UNL1       -0.2501
@<TRIPOS>BOND
     1    19    20    3
     2     1     2    1
     3     1    17    1
     4     1    20    1
     5     1    21    1
     6    21    22    1
     7    22    23    1
     8    22    24    2
     9     2     3    1
    10     3     4    1
    11     4     5    1
    12     4    17    1
    13     5     6    1
    14     5    14    1
    15     6     7    1
    16     7     8    1
    17     8     9    2
    18     8    13    1
    19     9    10    1
    20    10    11    1
    21    10    25    1
    22    25    26    1
    23    26    27    1
    24    26    28    2
    25    11    12    1
    26    12    13    1
    27    13    14    1
    28    14    15    1
    29    15    16    1
    30    16    17    1
    31    17    18    1



#	Name:			CHEMBL1200629
#	Creating user name:	trannguyen
#	Creation time:		Wed Dec  7 14:36:25 2022


#	Modifying user name:	trannguyen
#	Modification time:	Wed Dec  7 14:36:25 2022

@<TRIPOS>MOLECULE
CHEMBL1200629
 40 45 0 0 0
SMALL
GASTEIGER

@<TRIPOS>ATOM
      1 C           7.8770   31.9306    5.6522 C.3     1  UNL1        0.1832
      2 C           9.0709   32.7848    6.0620 C.3     1  UNL1        0.0450
      3 C          10.0571   31.9239    6.8594 C.3     1  UNL1        0.0037
      4 C          11.4074   32.6051    7.0227 C.3     1  UNL1        0.0001
      5 C          11.2939   33.8444    7.8690 C.3     1  UNL1        0.0000
      6 C          10.6790   33.6462    9.2514 C.3     1  UNL1        0.0003
      7 C           9.5590   32.5375    9.3755 C.3     1  UNL1        0.0001
      8 C           8.2503   33.0886    9.9553 C.3     1  UNL1        0.0001
      9 C           7.8541   34.4155    9.3510 C.3     1  UNL1        0.0037
     10 C           8.8600   35.5105    9.7303 C.3     1  UNL1        0.0427
     11 C           8.3863   36.1521   11.0631 C.3     1  UNL1        0.0038
     12 C          10.3078   34.9925    9.9773 C.3     1  UNL1        0.0094
     13 C          11.1983   36.2480    9.7039 C.3     1  UNL1        0.0590
     14 C          10.3403   37.2959    8.9263 C.3     1  UNL1        0.0992
     15 C           9.0802   36.4958    8.5425 C.3     1  UNL1        0.2172
     16 C           9.4582   31.4499    8.2041 C.3     1  UNL1        0.0015
     17 C          10.3574   30.2585    8.6950 C.3     1  UNL1        0.0000
     18 C           8.0522   30.7853    7.9230 C.3     1  UNL1        0.0196
     19 C           7.0466   31.4241    6.8903 C.3     1  UNL1        0.0979
     20 N          11.1343   37.9958    7.7266 N.4     1  UNL1        0.3000
     21 C          12.6308   37.7039    7.9339 C.3     1  UNL1        0.1703
     22 C          10.6672   37.3327    6.4105 C.3     1  UNL1        0.1086
     23 C          11.2348   38.0093    5.1640 C.3     1  UNL1        0.0612
     24 C          10.9756   39.5071    5.1508 C.3     1  UNL1        0.0122
     25 C          11.5145   40.1554    6.4148 C.3     1  UNL1        0.0612
     26 C          10.9216   39.5137    7.6637 C.3     1  UNL1        0.1086
     27 N           6.0032   32.2939    7.5632 N.3     1  UNL1       -0.2709
     28 C           4.8178   32.5215    6.7101 C.3     1  UNL1        0.0722
     29 C           3.7601   33.4209    7.3693 C.3     1  UNL1        0.0174
     30 C           3.5802   33.1734    8.8581 C.3     1  UNL1        0.0029
     31 C           4.0624   31.7844    9.2130 C.3     1  UNL1        0.0174
     32 C           5.5296   31.5830    8.8040 C.3     1  UNL1        0.0722
     33 O           7.0567   32.5923    4.6775 O.3     1  UNL1       -0.4509
     34 C           7.6834   32.1651    2.4769 C.3     1  UNL1        0.1212
     35 C           6.6928   31.9032    3.5677 C.2     1  UNL1        0.3175
     36 O           5.7305   31.1552    3.4669 O.2     1  UNL1       -0.2501
     37 O           7.9172   37.1468    8.0282 O.3     1  UNL1       -0.4463
     38 C           7.6268   38.4521    8.2454 C.2     1  UNL1        0.3176
     39 C           7.4323   39.1002    6.8995 C.3     1  UNL1        0.1212
     40 O           7.5861   38.9832    9.3293 O.2     1  UNL1       -0.2501
@<TRIPOS>UNITY_ATOM_ATTR
20 1
charge 1
@<TRIPOS>BOND
     1    34    35    1
     2    35    36    2
     3    35    33    1
     4     1     2    1
     5     1    19    1
     6     1    33    1
     7     2     3    1
     8     3     4    1
     9     3    16    1
    10     4     5    1
    11     5     6    1
    12     6     7    1
    13     6    12    1
    14     7     8    1
    15     7    16    1
    16     8     9    1
    17     9    10    1
    18    10    12    1
    19    10    15    1
    20    10    11    1
    21    12    13    1
    22    13    14    1
    23    14    15    1
    24    14    20    1
    25    20    21    1
    26    20    22    1
    27    20    26    1
    28    22    23    1
    29    23    24    1
    30    24    25    1
    31    25    26    1
    32    15    37    1
    33    37    38    1
    34    38    39    1
    35    38    40    2
    36    16    18    1
    37    16    17    1
    38    18    19    1
    39    19    27    1
    40    27    28    1
    41    27    32    1
    42    28    29    1
    43    29    30    1
    44    30    31    1
    45    31    32    1



#	Name:			CHEMBL1200633
#	Creating user name:	trannguyen
#	Creation time:		Wed Dec  7 14:36:25 2022


#	Modifying user name:	trannguyen
#	Modification time:	Wed Dec  7 14:36:25 2022

@<TRIPOS>MOLECULE
CHEMBL1200633
 65 71 0 0 0
SMALL
GASTEIGER

@<TRIPOS>ATOM
      1 C           9.3635   39.0358    1.4384 C.3     1  UNL1        0.1175
      2 O           9.9375   37.7447    1.4176 O.3     1  UNL1       -0.3367
      3 C          10.7388   37.5426    2.5407 C.3     1  UNL1        0.1902
      4 C          12.0132   38.3051    2.5236 C.3     1  UNL1        0.0564
      5 C          11.6352   39.7394    2.7430 C.3     1  UNL1        0.0074
      6 C          10.3026   40.1532    2.0480 C.3     1  UNL1        0.0275
      7 C           9.4719   40.9890    3.0448 C.3     1  UNL1        0.0025
      8 C          11.2184   36.0967    2.4164 C.3     1  UNL1        0.0998
      9 C          10.9211   35.4755    3.6903 C.3     1  UNL1        0.1762
     10 C          10.2784   36.5605    4.8891 C.3     1  UNL1        0.0737
     11 C          10.4724   37.9601    4.9413 C.3     1  UNL1        0.1255
     12 C           9.5419   38.5522    6.1209 C.3     1  UNL1        0.0552
     13 C           9.5122   37.8457    7.5126 C.2     1  UNL1       -0.0298
     14 C           9.1193   38.3222    8.7252 C.2     1  UNL1       -0.0211
     15 C           8.9191   39.7871    8.9975 C.3     1  UNL1        0.0285
     16 C           8.8262   37.3909    9.9569 C.3     1  UNL1        0.1397
     17 C          10.0667   37.4260   10.9578 C.3     1  UNL1        0.0532
     18 C           9.8193   36.7434   12.3230 C.3     1  UNL1        0.0075
     19 C          11.2146   36.8572   10.1635 C.2     1  UNL1       -0.0237
     20 C          11.4756   35.5511   10.1484 C.2     1  UNL1       -0.0050
     21 C          12.0457   34.8850    9.0166 C.2     1  UNL1       -0.0041
     22 C          11.8997   33.5623    8.9165 C.2     1  UNL1        0.0122
     23 C          11.1768   32.6459    9.9378 C.3     1  UNL1        0.1668
     24 O          11.5091   31.2774    9.6068 O.3     1  UNL1       -0.3462
     25 C          12.3065   31.3576    8.3755 C.3     1  UNL1        0.1749
     26 C          13.7842   31.3177    8.7213 C.3     1  UNL1        0.1582
     27 O          14.1793   32.2085    9.7931 O.3     1  UNL1       -0.3778
     28 C          14.6443   31.7244    7.5379 C.2     1  UNL1       -0.0188
     29 C          16.0740   31.3823    7.7497 C.3     1  UNL1        0.0285
     30 C          14.2116   32.3977    6.4440 C.2     1  UNL1       -0.0188
     31 C          12.7697   32.8509    6.2327 C.3     1  UNL1        0.1510
     32 C          12.7274   34.2962    5.2962 C.2     1  UNL1        0.3232
     33 O          13.4698   35.0843    5.4016 O.2     1  UNL1       -0.2497
     34 O          11.8391   34.3151    4.1732 O.3     1  UNL1       -0.4517
     35 C          12.0733   32.7290    7.6983 C.3     1  UNL1        0.1467
     36 O          10.7337   32.7931    7.5117 O.3     1  UNL1       -0.3795
     37 O           9.9739   38.1136    3.6367 O.3     1  UNL1       -0.3362
     38 H          13.5060   32.1804   10.4992 H       1  UNL1        0.2109
     39 H          10.4140   33.6540    7.2007 H       1  UNL1        0.2108
     40 C           8.9020   39.2745   -0.0026 C.3     1  UNL1        0.0273
     41 C          10.0368   39.8748   -0.8278 C.3     1  UNL1        0.0025
     42 C           9.1027   37.4537   -1.8763 C.3     1  UNL1        0.0001
     43 C           8.3198   38.0149   -0.6867 C.3     1  UNL1        0.0024
     44 O           8.5803   36.0279    9.5335 O.3     1  UNL1       -0.3284
     45 C           7.8958   35.0536   10.3912 C.3     1  UNL1        0.2379
     46 C           6.4646   35.4683   10.7669 C.3     1  UNL1        0.0934
     47 C           5.2324   34.6147   10.3864 C.3     1  UNL1        0.1498
     48 C           5.4386   33.2074    9.8022 C.3     1  UNL1        0.1718
     49 C           6.9260   32.8195    9.9286 C.3     1  UNL1        0.1473
     50 C           7.1535   32.2822   11.3536 C.3     1  UNL1        0.0348
     51 O           7.8839   33.8564    9.6160 O.3     1  UNL1       -0.3304
     52 O           4.2404   34.6372   11.4517 O.3     1  UNL1       -0.3508
     53 C           2.8970   34.7583   10.9619 C.3     1  UNL1        0.1741
     54 O           4.7289   32.8444    8.5413 O.3     1  UNL1       -0.3279
     55 C           4.4371   31.4844    8.3702 C.3     1  UNL1        0.2377
     56 C           3.7531   30.5811    9.4275 C.3     1  UNL1        0.0934
     57 C           2.4451   31.0880   10.0673 C.3     1  UNL1        0.1494
     58 C           1.3555   31.1407    8.9954 C.3     1  UNL1        0.1647
     59 O           0.1368   31.7872    9.4651 O.3     1  UNL1       -0.3795
     60 C           2.1942   31.9259    7.9311 C.3     1  UNL1        0.1469
     61 C           1.9417   31.9256    6.5571 C.3     1  UNL1        0.0348
     62 O           3.4127   31.3807    7.4672 O.3     1  UNL1       -0.3304
     63 H          -0.4009   32.1277    8.7249 H       1  UNL1        0.2105
     64 O           2.0513   30.1736   11.0919 O.3     1  UNL1       -0.3508
     65 C           1.9647   28.8916   10.5073 C.3     1  UNL1        0.1741
@<TRIPOS>BOND
     1    42    43    1
     2    40    41    1
     3    40     1    1
     4    40    43    1
     5     1     2    1
     6     1     6    1
     7     3     2    1
     8     3     4    1
     9     3     8    1
    10     3    37    1
    11     4     5    1
    12     5     6    1
    13     6     7    1
    14     8     9    1
    15     9    10    1
    16     9    34    1
    17    10    11    1
    18    11    12    1
    19    11    37    1
    20    12    13    1
    21    13    14    2
    22    14    15    1
    23    14    16    1
    24    16    44    1
    25    16    17    1
    26    44    45    1
    27    45    46    1
    28    45    51    1
    29    46    47    1
    30    47    52    1
    31    47    48    1
    32    52    53    1
    33    48    49    1
    34    48    54    1
    35    54    55    1
    36    55    56    1
    37    55    62    1
    38    56    57    1
    39    57    64    1
    40    57    58    1
    41    64    65    1
    42    58    60    1
    43    58    59    1
    44    59    63    1
    45    60    61    1
    46    60    62    1
    47    49    50    1
    48    49    51    1
    49    17    18    1
    50    17    19    1
    51    19    20    2
    52    20    21    1
    53    21    22    2
    54    22    23    1
    55    22    35    1
    56    23    24    1
    57    24    25    1
    58    25    26    1
    59    25    35    1
    60    26    27    1
    61    26    28    1
    62    27    38    1
    63    28    29    1
    64    28    30    2
    65    30    31    1
    66    31    32    1
    67    31    35    1
    68    32    33    2
    69    32    34    1
    70    35    36    1
    71    36    39    1



#	Name:			CHEMBL1200656
#	Creating user name:	trannguyen
#	Creation time:		Wed Dec  7 14:36:25 2022


#	Modifying user name:	trannguyen
#	Modification time:	Wed Dec  7 14:36:25 2022

@<TRIPOS>MOLECULE
CHEMBL1200656
 55 58 0 0 0
SMALL
GASTEIGER

@<TRIPOS>ATOM
      1 C           4.7406   41.2189   -6.2132 C.3     1  UNL1        0.0477
      2 C           5.9899   40.5761   -6.8183 C.3     1  UNL1        0.1736
      3 C           6.7336   41.6203   -7.6934 C.3     1  UNL1        0.0696
      4 C           7.6789   40.9769   -8.6749 C.2     1  UNL1       -0.0224
      5 C           8.9585   41.3431   -8.8611 C.2     1  UNL1       -0.0045
      6 C           9.8697   40.4866   -9.5941 C.2     1  UNL1       -0.0003
      7 C          11.1875   40.4773   -9.3259 C.2     1  UNL1       -0.0000
      8 C          11.8889   39.2009   -9.3447 C.2     1  UNL1       -0.0000
      9 C          12.1325   38.6537   -8.1429 C.2     1  UNL1       -0.0003
     10 C          12.4709   37.2807   -7.8468 C.2     1  UNL1       -0.0022
     11 C          12.2152   36.8265   -6.6068 C.2     1  UNL1        0.0030
     12 C          12.3352   35.4236   -6.0625 C.3     1  UNL1        0.1423
     13 C          13.3380   35.5595   -4.8769 C.3     1  UNL1        0.0645
     14 C          13.6979   34.4291   -3.8791 C.3     1  UNL1        0.1333
     15 O          13.0512   34.5557   -2.5980 O.3     1  UNL1       -0.3361
     16 C          11.6684   34.2194   -2.5547 C.3     1  UNL1        0.1882
     17 O          10.9244   35.2979   -3.0800 O.3     1  UNL1       -0.3634
     18 C          11.2368   34.1677   -1.0680 C.3     1  UNL1        0.0853
     19 C           9.6990   34.1851   -0.9075 C.3     1  UNL1        0.1179
     20 O           9.3548   33.2401    0.1164 O.3     1  UNL1       -0.3842
     21 C           9.1588   35.5781   -0.5170 C.3     1  UNL1        0.0618
     22 C           7.9631   36.0109   -1.3354 C.3     1  UNL1        0.1492
     23 O           7.1807   37.0192   -0.6762 O.3     1  UNL1       -0.3489
     24 C           7.8616   37.4331   -1.8691 C.3     1  UNL1        0.1644
     25 C           7.1030   37.7341   -3.0999 C.2     1  UNL1        0.0119
     26 C           7.3765   38.7101   -3.9717 C.2     1  UNL1        0.0798
     27 C           6.4978   38.9557   -5.1568 C.2     1  UNL1        0.3411
     28 O           5.5935   38.2201   -5.5001 O.2     1  UNL1       -0.2449
     29 O           6.8481   40.1323   -5.7578 O.3     1  UNL1       -0.4489
     30 C          11.3956   32.8326   -3.1936 C.3     1  UNL1        0.0859
     31 C          12.2711   32.4311   -4.3895 C.3     1  UNL1        0.1283
     32 O          12.3618   30.9934   -4.4271 O.3     1  UNL1       -0.3836
     33 C          13.6853   32.9616   -4.2761 C.3     1  UNL1        0.1529
     34 H          10.6596   35.1031   -3.9999 H       1  UNL1        0.2128
     35 H           8.3917   33.2891    0.2483 H       1  UNL1        0.2103
     36 H          11.4538   30.6392   -4.4531 H       1  UNL1        0.2104
     37 C          14.5212   32.6821   -5.5100 C.2     1  UNL1        0.3181
     38 O          15.7158   32.8625   -5.6117 O.2     1  UNL1       -0.2501
     39 O          13.8001   32.1146   -6.5011 O.3     1  UNL1       -0.4801
     40 H          12.8138   32.0939   -6.3180 H       1  UNL1        0.2951
     41 O          11.0599   34.9700   -5.5849 O.3     1  UNL1       -0.3266
     42 C           9.9957   34.8093   -6.5531 C.3     1  UNL1        0.2647
     43 O           9.3518   36.0455   -6.8190 O.3     1  UNL1       -0.3286
     44 C           8.2721   35.9445   -7.7384 C.3     1  UNL1        0.1460
     45 C           7.8766   37.3617   -8.1038 C.3     1  UNL1        0.0348
     46 C           7.1293   35.1992   -7.0606 C.3     1  UNL1        0.1541
     47 O           5.9869   35.0925   -7.9132 O.3     1  UNL1       -0.3805
     48 C           7.6031   33.7844   -6.6829 C.3     1  UNL1        0.1127
     49 N           6.5598   33.1245   -5.8367 N.3     1  UNL1       -0.3181
     50 C           8.9713   33.7891   -5.9634 C.3     1  UNL1        0.1835
     51 O           8.7291   34.0459   -4.5660 O.3     1  UNL1       -0.3783
     52 H           5.4648   35.9084   -7.7896 H       1  UNL1        0.2105
     53 H           5.7507   32.9773   -6.4539 H       1  UNL1        0.1190
     54 H           6.1848   33.8340   -5.1924 H       1  UNL1        0.1190
     55 H           7.9777   33.4577   -4.3486 H       1  UNL1        0.2106
@<TRIPOS>BOND
     1     1     2    1
     2     2     3    1
     3     2    29    1
     4     3     4    1
     5     4     5    2
     6     5     6    1
     7     6     7    2
     8     7     8    1
     9     8     9    2
    10     9    10    1
    11    10    11    2
    12    11    12    1
    13    12    13    1
    14    12    41    1
    15    42    43    1
    16    42    50    1
    17    42    41    1
    18    43    44    1
    19    44    45    1
    20    44    46    1
    21    46    48    1
    22    46    47    1
    23    47    52    1
    24    48    49    1
    25    48    50    1
    26    49    53    1
    27    49    54    1
    28    50    51    1
    29    51    55    1
    30    13    14    1
    31    14    15    1
    32    14    33    1
    33    15    16    1
    34    16    17    1
    35    16    18    1
    36    16    30    1
    37    17    34    1
    38    18    19    1
    39    19    20    1
    40    19    21    1
    41    20    35    1
    42    21    22    1
    43    22    23    1
    44    22    24    1
    45    23    24    1
    46    24    25    1
    47    25    26    2
    48    26    27    1
    49    27    28    2
    50    27    29    1
    51    30    31    1
    52    31    32    1
    53    31    33    1
    54    32    36    1
    55    33    37    1
    56    37    38    2
    57    37    39    1
    58    39    40    1



#	Name:			CHEMBL1200845
#	Creating user name:	trannguyen
#	Creation time:		Wed Dec  7 14:36:25 2022


#	Modifying user name:	trannguyen
#	Modification time:	Wed Dec  7 14:36:25 2022

@<TRIPOS>MOLECULE
CHEMBL1200845
 32 36 0 0 0
SMALL
GASTEIGER

@<TRIPOS>ATOM
      1 C           7.9276   31.6788    1.0529 C.3     1  UNL1        0.0612
      2 C           7.2911   32.0565    2.3864 C.3     1  UNL1        0.1877
      3 C           6.7318   30.8049    3.0566 C.3     1  UNL1        0.0612
      4 O           6.2357   32.9986    2.1657 O.3     1  UNL1       -0.3339
      5 C           6.5172   34.1152    3.0077 C.3     1  UNL1        0.1491
      6 C           5.8439   33.9446    4.3753 C.3     1  UNL1        0.0327
      7 C           6.9224   34.1320    5.4644 C.3     1  UNL1        0.0079
      8 C           7.2247   32.9086    6.3700 C.3     1  UNL1        0.0332
      9 C           5.9428   32.3055    6.9830 C.3     1  UNL1        0.0071
     10 C           6.2411   31.1499    7.9357 C.3     1  UNL1        0.0223
     11 C           7.1740   31.6403    9.0090 C.2     1  UNL1       -0.0394
     12 C           6.7315   31.7164   10.2768 C.2     1  UNL1        0.0290
     13 C           7.4859   32.4569   11.3111 C.2     1  UNL1        0.1725
     14 O           7.1030   32.4334   12.4766 O.2     1  UNL1       -0.2914
     15 C           8.6302   33.3140   10.8467 C.3     1  UNL1        0.0695
     16 C           9.3968   32.5922    9.7510 C.3     1  UNL1        0.0145
     17 C           8.5404   32.1656    8.5154 C.3     1  UNL1        0.0456
     18 C           9.3052   30.9990    7.8352 C.3     1  UNL1        0.0068
     19 C           8.2492   33.3356    7.4929 C.3     1  UNL1        0.1610
     20 F           7.5795   34.3087    8.2273 F       1  UNL1       -0.2372
     21 C           9.4758   34.0958    6.8790 C.3     1  UNL1        0.1406
     22 O          10.7438   33.6041    7.3053 O.3     1  UNL1       -0.3818
     23 C           9.4934   34.0985    5.3503 C.3     1  UNL1        0.0347
     24 C           8.1916   34.6258    4.7086 C.3     1  UNL1        0.0342
     25 C           8.1922   36.1716    4.7487 C.3     1  UNL1        0.0029
     26 C           8.0060   34.0638    3.2627 C.3     1  UNL1        0.1715
     27 O           8.2698   32.6468    3.2466 O.3     1  UNL1       -0.3297
     28 H          11.4350   34.1730    6.9220 H       1  UNL1        0.2104
     29 C           8.9292   34.7667    2.2380 C.2     1  UNL1        0.1935
     30 O          10.1597   34.7139    2.3588 O.2     1  UNL1       -0.2922
     31 C           8.3260   35.5826    1.1172 C.3     1  UNL1        0.1615
     32 CL          8.7198   34.8583   -0.4441 Cl      1  UNL1       -0.1052
@<TRIPOS>BOND
     1     1     2    1
     2     2     4    1
     3     2    27    1
     4     2     3    1
     5     4     5    1
     6     5     6    1
     7     5    26    1
     8     6     7    1
     9     7     8    1
    10     7    24    1
    11     8     9    1
    12     8    19    1
    13     9    10    1
    14    10    11    1
    15    11    12    2
    16    11    17    1
    17    12    13    1
    18    13    15    1
    19    13    14    2
    20    15    16    1
    21    16    17    1
    22    17    19    1
    23    17    18    1
    24    19    21    1
    25    19    20    1
    26    21    23    1
    27    21    22    1
    28    22    28    1
    29    23    24    1
    30    24    26    1
    31    24    25    1
    32    26    27    1
    33    26    29    1
    34    29    30    2
    35    29    31    1
    36    31    32    1



#	Name:			CHEMBL1200862
#	Creating user name:	trannguyen
#	Creation time:		Wed Dec  7 14:36:25 2022


#	Modifying user name:	trannguyen
#	Modification time:	Wed Dec  7 14:36:25 2022

@<TRIPOS>MOLECULE
CHEMBL1200862
 18 18 0 0 0
SMALL
GASTEIGER

@<TRIPOS>ATOM
      1 C           0.3770   29.1294    9.8109 C.3     1  UNL1        0.0273
      2 C           1.7744   29.2248   10.4539 C.3     1  UNL1        0.1335
      3 N           1.7889   30.4428   11.3007 N.3     1  UNL1       -0.3146
      4 H           2.6938   30.6021   11.7389 H       1  UNL1        0.1193
      5 H           1.0012   30.5054   11.9390 H       1  UNL1        0.1193
      6 C           1.9697   27.9420   11.2962 C.2     1  UNL1        0.3265
      7 O           2.0209   27.9242   12.5230 O.2     1  UNL1       -0.2489
      8 O           2.1258   26.8105   10.5707 O.3     1  UNL1       -0.4793
      9 H           2.0643   26.9917    9.6150 H       1  UNL1        0.2951
     10 C           2.8410   29.3103    9.3274 C.3     1  UNL1        0.0514
     11 C           4.1145   30.0797    9.6241 C.ar    1  UNL1       -0.0201
     12 C           5.1325   29.5117   10.4043 C.ar    1  UNL1       -0.0011
     13 C           6.3240   30.2074   10.6392 C.ar    1  UNL1        0.0363
     14 C           6.5015   31.4727   10.0903 C.ar    1  UNL1        0.1337
     15 O           7.6447   32.1867   10.2979 O.3     1  UNL1       -0.5055
     16 C           5.5115   32.0480    9.3050 C.ar    1  UNL1        0.0363
     17 C           4.3204   31.3551    9.0737 C.ar    1  UNL1       -0.0011
     18 H           8.2297   31.6739   10.8795 H       1  UNL1        0.2922
@<TRIPOS>BOND
     1     2    10    1
     2     2     6    1
     3     2     3    1
     4     2     1    1
     5     3     4    1
     6     3     5    1
     7    10    11    1
     8    11    12   ar
     9    11    17   ar
    10    12    13   ar
    11    13    14   ar
    12    14    15    1
    13    14    16   ar
    14    15    18    1
    15    16    17   ar
    16     6     7    2
    17     6     8    1
    18     8     9    1



#	Name:			CHEMBL1201010
#	Creating user name:	trannguyen
#	Creation time:		Wed Dec  7 14:36:25 2022


#	Modifying user name:	trannguyen
#	Modification time:	Wed Dec  7 14:36:25 2022

@<TRIPOS>MOLECULE
CHEMBL1201010
 32 35 0 0 0
SMALL
GASTEIGER

@<TRIPOS>ATOM
      1 C           2.2629   32.0720    9.1547 C.3     1  UNL1        0.1426
      2 O           1.2517   32.1030    8.1377 O.3     1  UNL1       -0.3797
      3 C           2.1629   33.3969    9.9294 C.3     1  UNL1        0.0342
      4 C           2.9009   34.3758    9.0416 C.3     1  UNL1        0.0030
      5 C           4.1797   33.6232    8.6578 C.3     1  UNL1        0.0054
      6 C           5.3305   33.7220    9.7036 C.3     1  UNL1        0.0331
      7 C           5.6746   35.1808   10.0708 C.3     1  UNL1        0.0071
      8 C           6.8353   35.2755   11.0591 C.3     1  UNL1        0.0223
      9 C           8.0231   34.5586   10.4798 C.2     1  UNL1       -0.0394
     10 C           9.1116   35.2698   10.1349 C.2     1  UNL1        0.0290
     11 C          10.1818   34.6829    9.3001 C.2     1  UNL1        0.1725
     12 O          11.1973   35.3335    9.0680 O.2     1  UNL1       -0.2914
     13 C           9.9119   33.3441    8.6719 C.3     1  UNL1        0.0695
     14 C           9.1595   32.4612    9.6535 C.3     1  UNL1        0.0145
     15 C           7.8161   33.0562   10.1852 C.3     1  UNL1        0.0456
     16 C           7.5136   32.3156   11.5152 C.3     1  UNL1        0.0068
     17 C           6.5969   32.9438    9.1834 C.3     1  UNL1        0.1610
     18 F           6.9915   33.6204    8.0375 F       1  UNL1       -0.2372
     19 C           6.1835   31.5178    8.6823 C.3     1  UNL1        0.1406
     20 O           7.0074   30.4610    9.1661 O.3     1  UNL1       -0.3818
     21 C           4.7309   31.1491    9.0345 C.3     1  UNL1        0.0347
     22 C           3.6939   32.1363    8.4553 C.3     1  UNL1        0.0316
     23 C           3.5776   31.8724    6.9294 C.3     1  UNL1        0.0028
     24 H           0.4461   32.5175    8.4987 H       1  UNL1        0.2108
     25 H           6.7756   29.6518    8.6768 H       1  UNL1        0.2104
     26 C           1.9687   30.9041   10.1377 C.2     1  UNL1        0.2183
     27 O           1.9446   31.0704   11.3613 O.2     1  UNL1       -0.2897
     28 C           1.7564   29.5162    9.5373 C.3     1  UNL1        0.2744
     29 O           1.2699   28.5082   10.4216 O.3     1  UNL1       -0.4402
     30 C           3.4320   27.7240    9.9817 C.3     1  UNL1        0.1212
     31 C           2.2321   27.6578   10.8898 C.2     1  UNL1        0.3180
     32 O           2.1072   26.8997   11.8317 O.2     1  UNL1       -0.2501
@<TRIPOS>BOND
     1    30    31    1
     2    31    32    2
     3    31    29    1
     4    29    28    1
     5    28    26    1
     6    26    27    2
     7     1     3    1
     8     1    22    1
     9     1     2    1
    10     1    26    1
    11     2    24    1
    12     3     4    1
    13     4     5    1
    14     5     6    1
    15     5    22    1
    16     6     7    1
    17     6    17    1
    18     7     8    1
    19     8     9    1
    20     9    10    2
    21     9    15    1
    22    10    11    1
    23    11    13    1
    24    11    12    2
    25    13    14    1
    26    14    15    1
    27    15    17    1
    28    15    16    1
    29    17    19    1
    30    17    18    1
    31    19    21    1
    32    19    20    1
    33    20    25    1
    34    21    22    1
    35    22    23    1



#	Name:			CHEMBL1201117
#	Creating user name:	trannguyen
#	Creation time:		Wed Dec  7 14:36:25 2022


#	Modifying user name:	trannguyen
#	Modification time:	Wed Dec  7 14:36:25 2022

@<TRIPOS>MOLECULE
CHEMBL1201117
 20 20 0 0 0
SMALL
GASTEIGER

@<TRIPOS>ATOM
      1 C           1.4931   30.7325    7.7396 C.3     1  UNL1        0.2384
      2 C           1.7057   31.1037    9.2159 C.3     1  UNL1        0.1983
      3 O           0.4315   31.3569    9.8166 O.3     1  UNL1       -0.3776
      4 H           0.1195   30.5335   10.2377 H       1  UNL1        0.2106
      5 C           2.4694   29.9893    9.9445 C.3     1  UNL1        0.2429
      6 O           1.9130   29.6995   11.2371 O.3     1  UNL1       -0.4320
      7 C           1.4106   28.4609   11.3940 C.2     1  UNL1        0.3985
      8 N           0.2177   28.3797   10.7708 N.am    1  UNL1       -0.2950
      9 O           1.9053   27.5573   12.0647 O.2     1  UNL1       -0.2267
     10 H          -0.1478   29.2021   10.3125 H       1  UNL1        0.1482
     11 H          -0.3662   27.5675   10.9016 H       1  UNL1        0.1482
     12 O           1.5475   31.9191    6.9469 O.3     1  UNL1       -0.4697
     13 C           3.6814   32.7147    6.2141 C.ar    1  UNL1        0.1724
     14 C           4.7493   32.6159    5.3089 C.ar    1  UNL1        0.0400
     15 C           4.6589   31.7992    4.1792 C.ar    1  UNL1        0.0033
     16 C           3.5030   31.0619    3.9513 C.ar    1  UNL1        0.0033
     17 C           2.4454   31.1323    4.8566 C.ar    1  UNL1        0.0400
     18 C           2.5213   31.9563    5.9870 C.ar    1  UNL1        0.1723
     19 C           4.8109   33.0188    8.2890 C.3     1  UNL1        0.2526
     20 O           3.9306   33.5282    7.2918 O.3     1  UNL1       -0.4684
@<TRIPOS>BOND
     1    19    20    1
     2    20    13    1
     3    13    14   ar
     4    13    18   ar
     5    14    15   ar
     6    15    16   ar
     7    16    17   ar
     8    17    18   ar
     9    18    12    1
    10    12     1    1
    11     1     2    1
    12     2     3    1
    13     2     5    1
    14     3     4    1
    15     5     6    1
    16     6     7    1
    17     7     8   am
    18     7     9    2
    19     8    10    1
    20     8    11    1



#	Name:			CHEMBL1201139
#	Creating user name:	trannguyen
#	Creation time:		Wed Dec  7 14:36:25 2022


#	Modifying user name:	trannguyen
#	Modification time:	Wed Dec  7 14:36:25 2022

@<TRIPOS>MOLECULE
CHEMBL1201139
 28 31 0 0 0
SMALL
GASTEIGER

@<TRIPOS>ATOM
      1 C           9.7775   34.1102    8.6603 C.3     1  UNL1        0.1859
      2 C          10.6219   33.7080    7.4314 C.3     1  UNL1        0.0474
      3 C           9.7431   32.6966    6.6925 C.3     1  UNL1        0.0045
      4 C           8.8918   31.9805    7.7713 C.3     1  UNL1        0.0078
      5 C           7.3815   31.6628    7.4599 C.3     1  UNL1        0.0221
      6 C           6.6598   32.4988    6.4433 C.2     1  UNL1       -0.0310
      7 C           5.3273   32.6295    6.3331 C.2     1  UNL1       -0.0300
      8 C           4.7566   33.3527    5.1344 C.3     1  UNL1        0.0304
      9 C           4.4187   32.0517    7.3200 C.2     1  UNL1       -0.0242
     10 C           3.1076   31.8806    7.0542 C.2     1  UNL1        0.0328
     11 C           2.1448   31.3718    8.0604 C.2     1  UNL1        0.1728
     12 O           0.9401   31.4427    7.8233 O.2     1  UNL1       -0.2913
     13 C           2.6631   30.8201    9.3624 C.3     1  UNL1        0.0695
     14 C           4.1629   30.5662    9.3152 C.3     1  UNL1        0.0122
     15 C           4.9937   31.7419    8.7061 C.3     1  UNL1        0.0194
     16 C           4.7609   33.0206    9.5560 C.3     1  UNL1        0.0044
     17 C           6.5117   31.2604    8.6963 C.3     1  UNL1        0.0078
     18 C           7.2293   31.4839   10.0428 C.3     1  UNL1        0.0008
     19 C           8.0342   32.7766   10.0615 C.3     1  UNL1        0.0038
     20 C           9.2437   32.6983    9.1193 C.3     1  UNL1        0.0404
     21 C          10.3378   31.8315    9.8168 C.3     1  UNL1        0.0039
     22 C          10.6328   34.8549    9.7245 C.2     1  UNL1        0.1869
     23 C          12.0206   35.3159    9.3503 C.3     1  UNL1        0.0760
     24 O          10.1828   35.1463   10.8369 O.2     1  UNL1       -0.2924
     25 O           8.6356   34.8554    8.1698 O.3     1  UNL1       -0.4486
     26 C           7.8645   36.9317    8.9523 C.3     1  UNL1        0.1212
     27 C           8.7650   36.1999    7.9960 C.2     1  UNL1        0.3177
     28 O           9.4302   36.7391    7.1388 O.2     1  UNL1       -0.2501
@<TRIPOS>BOND
     1    26    27    1
     2    27    28    2
     3    27    25    1
     4     1     2    1
     5     1    20    1
     6     1    22    1
     7     1    25    1
     8    22    23    1
     9    22    24    2
    10     2     3    1
    11     3     4    1
    12     4     5    1
    13     4    20    1
    14     5     6    1
    15     5    17    1
    16     6     7    2
    17     7     9    1
    18     7     8    1
    19     9    10    2
    20     9    15    1
    21    10    11    1
    22    11    13    1
    23    11    12    2
    24    13    14    1
    25    14    15    1
    26    15    17    1
    27    15    16    1
    28    17    18    1
    29    18    19    1
    30    19    20    1
    31    20    21    1



#	Name:			CHEMBL1201193
#	Creating user name:	trannguyen
#	Creation time:		Wed Dec  7 14:36:25 2022


#	Modifying user name:	trannguyen
#	Modification time:	Wed Dec  7 14:36:25 2022

@<TRIPOS>MOLECULE
CHEMBL1201193
 22 23 0 0 0
SMALL
GASTEIGER

@<TRIPOS>ATOM
      1 C           4.1540   32.2675    9.0829 C.2     1  UNL1        0.2406
      2 O           3.9208   32.8293   10.1589 O.2     1  UNL1       -0.2733
      3 N           3.6691   31.0160    8.7010 N.am    1  UNL1       -0.2833
      4 H           4.1793   30.5829    7.9439 H       1  UNL1        0.1549
      5 C           2.8531   30.1241    9.4533 C.ar    1  UNL1        0.0423
      6 C           1.4471   30.2159    9.5356 C.ar    1  UNL1       -0.0087
      7 C           0.6043   31.2324    8.8158 C.3     1  UNL1        0.0323
      8 C           0.7351   29.2665   10.3030 C.ar    1  UNL1       -0.0031
      9 C           1.3778   28.2059   10.9283 C.ar    1  UNL1       -0.0006
     10 C           2.7531   28.0815   10.8111 C.ar    1  UNL1       -0.0031
     11 C           3.5033   29.0328   10.0940 C.ar    1  UNL1       -0.0087
     12 C           4.9988   28.8391   10.0735 C.3     1  UNL1        0.0323
     13 N           6.5725   32.7856    8.4680 N.3     1  UNL1       -0.2666
     14 C           7.3552   33.6481    7.5611 C.3     1  UNL1        0.0725
     15 C           7.2883   33.2156    6.0942 C.3     1  UNL1        0.0174
     16 C           5.8609   32.9729    5.5973 C.3     1  UNL1        0.0033
     17 C           4.9262   32.3201    6.6232 C.3     1  UNL1        0.0254
     18 C           5.1452   32.8707    8.0386 C.3     1  UNL1        0.1351
     19 C           7.0984   31.3994    8.5067 C.3     1  UNL1        0.0725
     20 C           8.5129   31.2762    9.1090 C.3     1  UNL1        0.0173
     21 C          10.7619   30.1628    8.8701 C.3     1  UNL1        0.0000
     22 C           9.4991   30.6093    8.1516 C.3     1  UNL1        0.0014
@<TRIPOS>BOND
     1    21    22    1
     2    22    20    1
     3    20    19    1
     4    19    13    1
     5    13    14    1
     6    13    18    1
     7    14    15    1
     8    15    16    1
     9    16    17    1
    10    17    18    1
    11    18     1    1
    12     1     2    2
    13     1     3   am
    14     3     5    1
    15     3     4    1
    16     5     6   ar
    17     5    11   ar
    18     6     7    1
    19     6     8   ar
    20     8     9   ar
    21     9    10   ar
    22    10    11   ar
    23    11    12    1



#	Name:			CHEMBL1201207
#	Creating user name:	trannguyen
#	Creation time:		Wed Dec  7 14:36:25 2022


#	Modifying user name:	trannguyen
#	Modification time:	Wed Dec  7 14:36:25 2022

@<TRIPOS>MOLECULE
CHEMBL1201207
 36 39 0 0 0
SMALL
GASTEIGER

@<TRIPOS>ATOM
      1 C           5.8529   32.9994    5.7169 C.3     1  UNL1        0.0028
      2 C           6.0562   31.9211    6.7937 C.3     1  UNL1        0.0315
      3 C           7.5032   31.9809    7.3227 C.3     1  UNL1        0.0029
      4 C           7.3918   33.0442    8.4013 C.3     1  UNL1        0.0054
      5 C           8.6146   33.3781    9.2642 C.3     1  UNL1        0.0334
      6 C           9.8426   33.6867    8.3924 C.3     1  UNL1        0.0071
      7 C          11.0509   34.0713    9.2378 C.3     1  UNL1        0.0226
      8 C          10.7180   35.2229   10.1507 C.2     1  UNL1       -0.0354
      9 C          11.4476   36.3528   10.0884 C.2     1  UNL1        0.0339
     10 C          11.1307   37.5345   10.9102 C.2     1  UNL1        0.1948
     11 O          11.8264   38.5480   10.8674 O.2     1  UNL1       -0.2866
     12 C           9.9521   37.4509   11.7856 C.2     1  UNL1        0.0378
     13 C           9.2246   36.3274   11.8542 C.2     1  UNL1       -0.0171
     14 C           9.4944   35.0421   11.0734 C.3     1  UNL1        0.0638
     15 C           9.8341   33.9756   12.1406 C.3     1  UNL1        0.0112
     16 C           8.2571   34.5988   10.1826 C.3     1  UNL1        0.1644
     17 F           7.9878   35.6552    9.3259 F       1  UNL1       -0.2369
     18 C           6.9141   34.3525   10.9507 C.3     1  UNL1        0.1409
     19 O           6.4217   35.5671   11.5302 O.3     1  UNL1       -0.3817
     20 C           5.7626   33.8195   10.0600 C.3     1  UNL1        0.0347
     21 C           6.1563   32.5925    9.2184 C.3     1  UNL1        0.0315
     22 C           6.4737   31.4284   10.2087 C.3     1  UNL1        0.0028
     23 C           5.1596   32.0844    8.0750 C.3     1  UNL1        0.1413
     24 O           4.7231   30.7483    8.3879 O.3     1  UNL1       -0.3797
     25 H           6.4243   36.2329   10.8132 H       1  UNL1        0.2104
     26 H           4.1328   30.7809    9.1647 H       1  UNL1        0.2108
     27 C           3.8783   32.9165    7.7737 C.2     1  UNL1        0.2047
     28 O           3.7577   34.1196    8.0235 O.2     1  UNL1       -0.2910
     29 C           2.6934   32.1831    7.1514 C.3     1  UNL1        0.2199
     30 O           2.1710   31.2269    8.0448 O.3     1  UNL1       -0.2653
     31 P           1.1044   31.6814    9.1476 P.3     1  UNL1        0.4735
     32 O           1.5990   32.4624   10.3116 O.2     1  UNL1       -0.2275
     33 O          -0.0031   32.4345    8.2793 O.3     1  UNL1       -0.3026
     34 O           0.3198   30.3491    9.5348 O.3     1  UNL1       -0.3026
     35 H          -0.6841   32.8356    8.8469 H       1  UNL1        0.2220
     36 H           0.8029   29.8179   10.2067 H       1  UNL1        0.2220
@<TRIPOS>BOND
     1     2     3    1
     2     2    23    1
     3     2     1    1
     4     3     4    1
     5     4     5    1
     6     4    21    1
     7     5     6    1
     8     5    16    1
     9     6     7    1
    10     7     8    1
    11     8     9    2
    12     8    14    1
    13     9    10    1
    14    10    11    2
    15    10    12    1
    16    12    13    2
    17    13    14    1
    18    14    15    1
    19    14    16    1
    20    16    17    1
    21    16    18    1
    22    18    20    1
    23    18    19    1
    24    19    25    1
    25    20    21    1
    26    21    22    1
    27    21    23    1
    28    23    24    1
    29    23    27    1
    30    24    26    1
    31    27    28    2
    32    27    29    1
    33    29    30    1
    34    30    31    1
    35    31    32    2
    36    31    33    1
    37    31    34    1
    38    33    35    1
    39    34    36    1



#	Name:			CHEMBL1201220
#	Creating user name:	trannguyen
#	Creation time:		Wed Dec  7 14:36:25 2022


#	Modifying user name:	trannguyen
#	Modification time:	Wed Dec  7 14:36:25 2022

@<TRIPOS>MOLECULE
CHEMBL1201220
 23 23 0 0 0
SMALL
GASTEIGER

@<TRIPOS>ATOM
      1 C           3.6031   32.9092    7.2120 C.ar    1  UNL1        0.0626
      2 C           4.7219   33.2052    8.0119 C.ar    1  UNL1        0.0578
      3 I           4.4000   34.2944    9.8359 I       1  UNL1       -0.0399
      4 C           6.0297   33.0518    7.5180 C.ar    1  UNL1        0.0626
      5 C           6.2131   32.8367    6.1288 C.ar    1  UNL1        0.0506
      6 I           8.2509   32.5906    5.4660 I       1  UNL1       -0.0410
      7 C           5.0964   32.7044    5.2577 C.ar    1  UNL1        0.0886
      8 C           3.8035   32.6317    5.8385 C.ar    1  UNL1        0.0506
      9 I           2.1754   31.7610    4.7093 I       1  UNL1       -0.0410
     10 C           0.6102   31.5956    9.1152 C.3     1  UNL1        0.0949
     11 C           1.9948   31.5747    8.5062 C.2     1  UNL1        0.2266
     12 O           2.7212   30.5876    8.5826 O.2     1  UNL1       -0.2748
     13 N           2.3373   32.7456    7.8475 N.am    1  UNL1       -0.2832
     14 H           1.5582   33.1911    7.3706 H       1  UNL1        0.1549
     15 N           7.1626   33.0734    8.3906 N.am    1  UNL1       -0.2832
     16 C           7.5464   31.9096    9.0553 C.2     1  UNL1        0.2266
     17 C           8.9002   32.0055    9.7217 C.3     1  UNL1        0.0949
     18 O           6.9031   30.8633    9.0632 O.2     1  UNL1       -0.2748
     19 H           7.9518   33.6202    8.0594 H       1  UNL1        0.1549
     20 C           5.2858   32.6332    3.7677 C.2     1  UNL1        0.3389
     21 O           5.1616   33.5579    3.0060 O.2     1  UNL1       -0.2451
     22 O           5.5200   31.3743    3.3120 O.3     1  UNL1       -0.4771
     23 H           5.7992   30.7095    3.9695 H       1  UNL1        0.2954
@<TRIPOS>BOND
     1    10    11    1
     2    11    12    2
     3    11    13   am
     4    13     1    1
     5    13    14    1
     6     1     2   ar
     7     1     8   ar
     8     2     3    1
     9     2     4   ar
    10     4    15    1
    11     4     5   ar
    12    15    16   am
    13    15    19    1
    14    16    17    1
    15    16    18    2
    16     5     6    1
    17     5     7   ar
    18     7    20    1
    19     7     8   ar
    20    20    21    2
    21    20    22    1
    22    22    23    1
    23     8     9    1



#	Name:			CHEMBL1201356
#	Creating user name:	trannguyen
#	Creation time:		Wed Dec  7 14:36:25 2022


#	Modifying user name:	trannguyen
#	Modification time:	Wed Dec  7 14:36:25 2022

@<TRIPOS>MOLECULE
CHEMBL1201356
 28 31 0 0 0
SMALL
GASTEIGER

@<TRIPOS>ATOM
      1 C           2.0677   31.7604    7.7909 C.3     1  UNL1        0.1140
      2 C           3.5716   31.8877    7.8913 C.2     1  UNL1       -0.0190
      3 C           4.2634   32.4874    6.9030 C.2     1  UNL1       -0.0112
      4 C           5.7363   32.4161    6.8243 C.ar    1  UNL1       -0.0019
      5 C           6.6336   31.8905    7.7650 C.ar    1  UNL1       -0.0002
      6 C           7.9979   31.7669    7.4674 C.ar    1  UNL1        0.0015
      7 C           8.5175   32.1481    6.2222 C.ar    1  UNL1        0.0170
      8 C           7.6173   32.6907    5.3034 C.ar    1  UNL1        0.0563
      9 N           7.7837   33.1535    4.0162 N.ar    1  UNL1       -0.3523
     10 H           8.6608   33.1522    3.5144 H       1  UNL1        0.1660
     11 C           6.5916   33.6341    3.5239 C.ar    1  UNL1        0.0681
     12 C           5.6411   33.4657    4.5040 C.ar    1  UNL1       -0.0021
     13 C           6.2722   32.8434    5.6020 C.ar    1  UNL1        0.0128
     14 C           4.2121   33.8553    4.5830 C.3     1  UNL1        0.0484
     15 C           3.4495   33.1279    5.7480 C.3     1  UNL1        0.0843
     16 N           2.4163   32.1819    5.2418 N.3     1  UNL1       -0.2681
     17 C           3.0001   31.0568    4.5087 C.3     1  UNL1        0.0899
     18 C           1.5260   31.7193    6.3320 C.3     1  UNL1        0.0859
     19 N           2.5342   29.8144    9.2362 N.am    1  UNL1       -0.3032
     20 C           1.5714   30.5246    8.5451 C.2     1  UNL1        0.2275
     21 O           0.3851   30.1836    8.5057 O.2     1  UNL1       -0.2747
     22 H           3.4990   30.1164    9.1513 H       1  UNL1        0.1495
     23 CA          2.2438   28.5486    9.9347 C.3     1  UNL1        0.1008
     24 C           1.5189   28.8329   11.2680 C.3     1  UNL1        0.1565
     25 O           1.9393   27.9608   12.3156 O.3     1  UNL1       -0.3802
     26 H           1.8289   27.0469   12.0052 H       1  UNL1        0.2105
     27 C           4.8366   28.5732   10.0224 C.3     1  UNL1        0.0018
     28 C           3.5529   27.7587   10.1602 C.3     1  UNL1        0.0221
@<TRIPOS>BOND
     1    27    28    1
     2    28    23    1
     3    23    24    1
     4    23    19    1
     5    24    25    1
     6    25    26    1
     7    19    20   am
     8    19    22    1
     9    20    21    2
    10    20     1    1
    11     1     2    1
    12     1    18    1
    13     2     3    2
    14     3     4    1
    15     3    15    1
    16     4     5   ar
    17     4    13   ar
    18     5     6   ar
    19     6     7   ar
    20     7     8   ar
    21     8     9   ar
    22     8    13   ar
    23     9    11   ar
    24     9    10    1
    25    11    12   ar
    26    12    13   ar
    27    12    14    1
    28    14    15    1
    29    15    16    1
    30    16    18    1
    31    16    17    1



#	Name:			CHEMBL1208572
#	Creating user name:	trannguyen
#	Creation time:		Wed Dec  7 14:36:25 2022


#	Modifying user name:	trannguyen
#	Modification time:	Wed Dec  7 14:36:25 2022

@<TRIPOS>MOLECULE
CHEMBL1208572
 57 61 0 0 0
SMALL
GASTEIGER

@<TRIPOS>ATOM
      1 C           9.4085   35.6613   -7.9301 C.3     1  UNL1        0.1247
      2 O           9.2426   35.3197   -6.5609 O.3     1  UNL1       -0.3329
      3 C           8.1284   34.5846   -6.0412 C.3     1  UNL1        0.2085
      4 C           8.6551   33.2658   -5.4421 C.2     1  UNL1        0.0270
      5 C           8.4596   32.8904   -4.1618 C.2     1  UNL1        0.0077
      6 C           7.8855   33.8739   -3.1813 C.3     1  UNL1        0.1840
      7 O           8.5115   33.6505   -1.9201 O.3     1  UNL1       -0.3756
      8 C           8.1742   35.2975   -3.7329 C.3     1  UNL1        0.2181
      9 C           7.7315   36.4141   -2.7774 C.3     1  UNL1        0.0617
     10 C           9.0428   36.9328   -2.1824 C.3     1  UNL1        0.0348
     11 C          10.0408   36.6946   -3.3098 C.3     1  UNL1        0.1201
     12 C           9.8752   37.7635   -4.3877 C.3     1  UNL1        0.0322
     13 O           9.6024   35.4441   -3.8534 O.3     1  UNL1       -0.3344
     14 O           7.5292   35.4101   -5.0022 O.3     1  UNL1       -0.3084
     15 C           6.9483   34.2796   -7.0248 C.3     1  UNL1        0.0560
     16 C           6.3629   32.8500   -6.9354 C.3     1  UNL1        0.0054
     17 C           7.1764   34.6379   -8.4850 C.3     1  UNL1        0.0076
     18 C           8.6140   34.7962   -8.9113 C.3     1  UNL1        0.0279
     19 C           9.3266   33.4658   -9.1960 C.3     1  UNL1        0.0025
     20 H           9.4394   33.9216   -2.0458 H       1  UNL1        0.2110
     21 C          11.5072   36.4089   -2.8870 C.3     1  UNL1        0.1400
     22 C          11.7187   36.2142   -1.3769 C.3     1  UNL1        0.0345
     23 C          11.4734   34.7888   -0.8948 C.3     1  UNL1        0.0319
     24 C          12.0764   33.7055   -1.8079 C.3     1  UNL1        0.1132
     25 O          11.3063   32.4988   -1.5911 O.3     1  UNL1       -0.3844
     26 C          11.8975   34.0691   -3.3145 C.3     1  UNL1        0.1396
     27 C          12.7364   33.2313   -4.2759 C.3     1  UNL1        0.0345
     28 O          12.1985   35.4222   -3.6359 O.3     1  UNL1       -0.3540
     29 H          11.2119   32.3709   -0.6311 H       1  UNL1        0.2103
     30 C          13.5147   33.3468   -1.3668 C.3     1  UNL1        0.0293
     31 C          13.7570   31.9203   -0.9064 C.3     1  UNL1        0.0026
     32 C           9.4776   37.2127   -8.2543 C.3     1  UNL1        0.0849
     33 C          11.8069   37.6993   -9.4709 C.3     1  UNL1        0.0005
     34 C          10.2982   37.5205   -9.5410 C.3     1  UNL1        0.0098
     35 C           8.1299   38.0355   -8.2486 C.2     1  UNL1        0.1545
     36 O           7.4050   38.0855   -7.2528 O.2     1  UNL1       -0.2959
     37 C           7.6534   38.7764   -9.5315 C.3     1  UNL1        0.0846
     38 C           6.4984   37.9254  -10.0518 C.3     1  UNL1        0.0103
     39 C           7.2811   40.2882   -9.3440 C.3     1  UNL1        0.1196
     40 O           6.2231   40.3211   -8.3748 O.3     1  UNL1       -0.3839
     41 H           5.5026   40.8663   -8.7396 H       1  UNL1        0.2104
     42 C           8.4565   41.2311   -8.8286 C.3     1  UNL1        0.0545
     43 C           9.7924   40.9815   -9.5597 C.3     1  UNL1        0.0050
     44 C           8.5442   41.3165   -7.2408 C.3     1  UNL1        0.1173
     45 O           7.3569   41.9240   -6.6428 O.3     1  UNL1       -0.3581
     46 C           7.2550   41.8683   -5.1761 C.3     1  UNL1        0.1256
     47 C           8.5161   42.5355   -4.6083 C.3     1  UNL1        0.0302
     48 C           9.7636   41.8132   -5.0963 C.3     1  UNL1        0.0049
     49 C           9.8490   41.8911   -6.6279 C.3     1  UNL1        0.0274
     50 C          10.1975   43.3312   -7.0247 C.3     1  UNL1        0.0025
     51 C           6.9105   40.4335   -4.6536 C.3     1  UNL1        0.1259
     52 C           5.5864   39.9182   -5.1881 C.2     1  UNL1        0.3157
     53 O           5.2246   38.8162   -4.9500 O.2     1  UNL1       -0.2502
     54 O           4.7492   40.7988   -5.7472 O.3     1  UNL1       -0.4801
     55 H           5.1687   41.6287   -6.1081 H       1  UNL1        0.2951
     56 C           6.8530   40.0850   -3.1279 C.3     1  UNL1        0.0136
     57 C           6.0420   40.9446   -2.1763 C.3     1  UNL1        0.0007
@<TRIPOS>BOND
     1    33    34    1
     2    34    32    1
     3    32    35    1
     4    32     1    1
     5    35    36    2
     6    35    37    1
     7    37    38    1
     8    37    39    1
     9    39    40    1
    10    40    41    1
    11    42    43    1
    12    42    39    1
    13    44    45    1
    14    44    49    1
    15    44    42    1
    16    45    46    1
    17    46    47    1
    18    46    51    1
    19    51    56    1
    20    51    52    1
    21    56    57    1
    22    52    53    2
    23    52    54    1
    24    54    55    1
    25    47    48    1
    26    48    49    1
    27    49    50    1
    28     1     2    1
    29     1    18    1
    30     3     2    1
    31     3     4    1
    32     3    14    1
    33     3    15    1
    34     4     5    2
    35     5     6    1
    36     6     8    1
    37     6     7    1
    38     7    20    1
    39     8     9    1
    40     8    13    1
    41     8    14    1
    42     9    10    1
    43    10    11    1
    44    11    13    1
    45    11    21    1
    46    11    12    1
    47    21    22    1
    48    21    28    1
    49    22    23    1
    50    23    24    1
    51    24    25    1
    52    24    30    1
    53    24    26    1
    54    25    29    1
    55    30    31    1
    56    26    27    1
    57    26    28    1
    58    15    16    1
    59    15    17    1
    60    17    18    1
    61    18    19    1



#	Name:			CHEMBL121
#	Creating user name:	trannguyen
#	Creation time:		Wed Dec  7 14:36:25 2022


#	Modifying user name:	trannguyen
#	Modification time:	Wed Dec  7 14:36:25 2022

@<TRIPOS>MOLECULE
CHEMBL121
 26 28 0 0 0
SMALL
GASTEIGER

@<TRIPOS>ATOM
      1 C           6.8602   32.4855    6.8780 C.ar    1  UNL1        0.1386
      2 C           5.5040   32.7346    7.0931 C.ar    1  UNL1        0.0366
      3 C           4.8105   32.0813    8.1200 C.ar    1  UNL1       -0.0011
      4 C           5.4652   31.1570    8.9452 C.ar    1  UNL1       -0.0206
      5 C           6.8370   30.9443    8.7460 C.ar    1  UNL1       -0.0011
      6 C           7.5331   31.6197    7.7361 C.ar    1  UNL1        0.0366
      7 O           7.4275   33.1601    5.8329 O.3     1  UNL1       -0.4736
      8 C           6.5405   33.8983    4.9793 C.3     1  UNL1        0.2267
      9 C           6.6906   33.4156    3.5332 C.3     1  UNL1        0.1396
     10 C           6.4222   30.9574    3.4455 C.3     1  UNL1        0.1137
     11 N           5.7977   32.2669    3.2593 N.pl3   1  UNL1       -0.2879
     12 C           4.4771   32.4109    3.7121 C.ar    1  UNL1        0.1318
     13 C           3.7758   31.3527    4.2991 C.ar    1  UNL1        0.0343
     14 C           2.4776   31.5374    4.7803 C.ar    1  UNL1        0.0045
     15 C           1.8730   32.7730    4.6403 C.ar    1  UNL1        0.0208
     16 C           2.5921   33.7608    4.0027 C.ar    1  UNL1        0.1003
     17 N           3.8526   33.5976    3.5418 N.ar    1  UNL1       -0.2292
     18 C           4.7348   30.4267   10.0557 C.3     1  UNL1        0.0468
     19 C           3.5502   29.5610    9.6052 C.3     1  UNL1        0.1369
     20 S           3.7163   27.8150   10.1293 S.3     1  UNL1       -0.0482
     21 C           2.3225   27.8770   11.1759 C.2     1  UNL1        0.2792
     22 O           1.8889   26.9273   11.7943 O.2     1  UNL1       -0.2625
     23 N           1.7778   29.1200   11.1561 N.am    1  UNL1       -0.2460
     24 C           2.2598   30.0228   10.2593 C.2     1  UNL1        0.2392
     25 O           1.6882   31.0783   10.0103 O.2     1  UNL1       -0.2737
     26 H           0.9055   29.2796   11.6340 H       1  UNL1        0.1583
@<TRIPOS>BOND
     1    10    11    1
     2    11     9    1
     3    11    12    1
     4     9     8    1
     5     8     7    1
     6     7     1    1
     7     1     2   ar
     8     1     6   ar
     9     2     3   ar
    10     3     4   ar
    11     4    18    1
    12     4     5   ar
    13    18    19    1
    14    19    20    1
    15    19    24    1
    16    20    21    1
    17    21    22    2
    18    21    23   am
    19    23    24   am
    20    23    26    1
    21    24    25    2
    22     5     6   ar
    23    12    13   ar
    24    12    17   ar
    25    13    14   ar
    26    14    15   ar
    27    15    16   ar
    28    16    17   ar



#	Name:			CHEMBL12131
#	Creating user name:	trannguyen
#	Creation time:		Wed Dec  7 14:36:25 2022


#	Modifying user name:	trannguyen
#	Modification time:	Wed Dec  7 14:36:25 2022

@<TRIPOS>MOLECULE
CHEMBL12131
 32 34 0 0 0
SMALL
GASTEIGER

@<TRIPOS>ATOM
      1 C           9.9634   31.3892    6.5781 C.3     1  UNL1        0.0323
      2 C           9.2296   31.8059    7.8275 C.ar    1  UNL1       -0.0086
      3 C           7.8205   31.8895    7.7685 C.ar    1  UNL1       -0.0051
      4 C           7.0386   32.3232    8.8639 C.ar    1  UNL1        0.0060
      5 C           7.7124   32.6474   10.0434 C.ar    1  UNL1        0.0562
      6 CL          6.8993   33.2202   11.4589 Cl      1  UNL1       -0.0825
      7 C           9.0983   32.5231   10.1239 C.ar    1  UNL1        0.0255
      8 C           9.8757   32.0941    9.0418 C.ar    1  UNL1        0.0473
      9 N          11.2799   31.9576    9.1609 N.am    1  UNL1       -0.2805
     10 C          11.9747   30.7682    9.3024 C.2     1  UNL1        0.2525
     11 O          11.5006   29.6363    9.3019 O.2     1  UNL1       -0.2697
     12 H          11.8474   32.7976    9.0930 H       1  UNL1        0.1552
     13 C          13.4378   30.8590    9.5191 C.ar    1  UNL1        0.0881
     14 C          14.1814   31.4279    8.4693 C.ar    1  UNL1        0.0134
     15 C          15.5578   31.5759    8.5846 C.ar    1  UNL1        0.0308
     16 I          16.6363   32.3887    7.0071 I       1  UNL1       -0.0425
     17 C          16.2081   31.1769    9.7494 C.ar    1  UNL1        0.0146
     18 C          15.4693   30.6220   10.8007 C.ar    1  UNL1        0.0643
     19 I          16.4886   30.0541   12.5352 I       1  UNL1       -0.0394
     20 C          14.0837   30.4525   10.6896 C.ar    1  UNL1        0.1432
     21 O          13.3514   29.9049   11.7118 O.3     1  UNL1       -0.5049
     22 H          13.9360   29.8411   12.4920 H       1  UNL1        0.2922
     23 C           5.5108   32.4151    8.7776 C.3     1  UNL1        0.1365
     24 C           4.7642   31.1669    9.2499 C.ar    1  UNL1       -0.0042
     25 C           5.4231   30.0364    9.7637 C.ar    1  UNL1       -0.0021
     26 C           4.6995   28.9166   10.1889 C.ar    1  UNL1        0.0111
     27 C           3.3110   28.9071   10.0951 C.ar    1  UNL1        0.0577
     28 CL          2.4244   27.5397   10.6463 Cl      1  UNL1       -0.0822
     29 C           2.6381   30.0018    9.5623 C.ar    1  UNL1        0.0111
     30 C           3.3595   31.1232    9.1404 C.ar    1  UNL1       -0.0021
     31 C           5.0434   32.8427    7.4388 C.1     1  UNL1        0.0811
     32 N           4.7035   33.1876    6.3774 N.1     1  UNL1       -0.1952
@<TRIPOS>BOND
     1     1     2    1
     2     2     3   ar
     3     2     8   ar
     4     3     4   ar
     5     4    23    1
     6     4     5   ar
     7    23    31    1
     8    23    24    1
     9    31    32    3
    10    24    25   ar
    11    24    30   ar
    12    25    26   ar
    13    26    27   ar
    14    27    28    1
    15    27    29   ar
    16    29    30   ar
    17     5     6    1
    18     5     7   ar
    19     7     8   ar
    20     8     9    1
    21     9    10   am
    22     9    12    1
    23    10    11    2
    24    10    13    1
    25    13    14   ar
    26    13    20   ar
    27    14    15   ar
    28    15    16    1
    29    15    17   ar
    30    17    18   ar
    31    18    19    1
    32    18    20   ar
    33    20    21    1
    34    21    22    1



#	Name:			CHEMBL1231
#	Creating user name:	trannguyen
#	Creation time:		Wed Dec  7 14:36:25 2022


#	Modifying user name:	trannguyen
#	Modification time:	Wed Dec  7 14:36:25 2022

@<TRIPOS>MOLECULE
CHEMBL1231
 27 28 0 0 0
SMALL
GASTEIGER

@<TRIPOS>ATOM
      1 C           5.3624   32.6335    4.8685 C.3     1  UNL1        0.1960
      2 O           4.6968   33.9067    4.8941 O.3     1  UNL1       -0.3728
      3 H           5.4032   34.5607    5.0572 H       1  UNL1        0.2114
      4 C           6.1388   32.5081    3.5424 C.ar    1  UNL1        0.0119
      5 C           6.2951   33.6068    2.6770 C.ar    1  UNL1       -0.0015
      6 C           7.0548   33.4933    1.5026 C.ar    1  UNL1       -0.0002
      7 C           7.6660   32.2852    1.1683 C.ar    1  UNL1       -0.0000
      8 C           7.5077   31.1830    1.9981 C.ar    1  UNL1       -0.0002
      9 C           6.7520   31.2943    3.1679 C.ar    1  UNL1       -0.0015
     10 C           4.2852   31.5004    5.0676 C.3     1  UNL1        0.0391
     11 C           3.2714   31.7700    6.2090 C.3     1  UNL1        0.0032
     12 C           2.1649   32.7637    5.8583 C.3     1  UNL1        0.0001
     13 C           1.4061   32.3340    4.6103 C.3     1  UNL1        0.0000
     14 C           2.3343   32.0344    3.4379 C.3     1  UNL1        0.0001
     15 C           3.4885   31.1039    3.8046 C.3     1  UNL1        0.0032
     16 C           6.3632   32.6008    6.0745 C.2     1  UNL1        0.3462
     17 O           7.4430   32.0238    6.0890 O.2     1  UNL1       -0.2471
     18 O           5.8409   33.2930    7.1333 O.3     1  UNL1       -0.4319
     19 C           6.4413   32.9891    8.4021 C.3     1  UNL1        0.2843
     20 C           5.4263   30.8028    9.5249 C.1     1  UNL1       -0.0695
     21 C           5.8512   31.7938    9.0003 C.1     1  UNL1       -0.0424
     22 C           4.9170   29.6130   10.1986 C.3     1  UNL1        0.1499
     23 N           3.4662   29.6709   10.5006 N.3     1  UNL1       -0.2618
     24 C           1.9028   31.6042   10.0161 C.3     1  UNL1        0.0188
     25 C           2.6889   30.4033    9.4862 C.3     1  UNL1        0.0730
     26 C           2.9523   28.3063   10.7321 C.3     1  UNL1        0.0730
     27 C           1.5472   28.2517   11.3236 C.3     1  UNL1        0.0188
@<TRIPOS>BOND
     1    24    25    1
     2    25    23    1
     3    23    26    1
     4    23    22    1
     5    26    27    1
     6    22    20    1
     7    20    21    3
     8    21    19    1
     9    19    18    1
    10    18    16    1
    11    16    17    2
    12    16     1    1
    13     1     2    1
    14     1     4    1
    15     1    10    1
    16     2     3    1
    17     4     5   ar
    18     4     9   ar
    19     5     6   ar
    20     6     7   ar
    21     7     8   ar
    22     8     9   ar
    23    10    11    1
    24    10    15    1
    25    11    12    1
    26    12    13    1
    27    13    14    1
    28    14    15    1



#	Name:			CHEMBL1231107
#	Creating user name:	trannguyen
#	Creation time:		Wed Dec  7 14:36:25 2022


#	Modifying user name:	trannguyen
#	Modification time:	Wed Dec  7 14:36:25 2022

@<TRIPOS>MOLECULE
CHEMBL1231107
 17 18 0 0 0
SMALL
GASTEIGER

@<TRIPOS>ATOM
      1 N          -0.4701   28.6809   10.1995 N.pl3   1  UNL1       -0.3273
      2 C           0.6423   29.3686    9.7555 C.ar    1  UNL1        0.2184
      3 N           1.8161   29.0029   10.2406 N.ar    1  UNL1       -0.1814
      4 C           2.8456   29.6815    9.7667 C.ar    1  UNL1        0.2184
      5 N           4.0997   29.3596   10.2523 N.pl3   1  UNL1       -0.3273
      6 N           2.7689   30.6811    8.9081 N.ar    1  UNL1       -0.1812
      7 C           1.5416   30.9890    8.5024 C.ar    1  UNL1        0.2215
      8 N           0.4432   30.3662    8.9116 N.ar    1  UNL1       -0.1812
      9 H          -0.2805   28.2378   11.0875 H       1  UNL1        0.1452
     10 H          -1.2962   29.2586   10.1334 H       1  UNL1        0.1452
     11 H           4.0206   28.9415   11.1685 H       1  UNL1        0.1452
     12 H           4.7164   30.1552   10.1597 H       1  UNL1        0.1452
     13 N           1.3434   32.0443    7.6010 N.pl3   1  UNL1       -0.3045
     14 H           0.3442   32.0898    7.4316 H       1  UNL1        0.1496
     15 C           2.2556   32.1934    6.4711 C.3     1  UNL1        0.0719
     16 C           2.3331   31.1437    5.3983 C.3     1  UNL1        0.0213
     17 C           1.7211   32.4808    5.0958 C.3     1  UNL1        0.0213
@<TRIPOS>BOND
     1     1     2    1
     2     1     9    1
     3     1    10    1
     4     2     3   ar
     5     2     8   ar
     6     3     4   ar
     7     4     5    1
     8     4     6   ar
     9     5    11    1
    10     5    12    1
    11     6     7   ar
    12     7    13    1
    13     7     8   ar
    14    13    15    1
    15    13    14    1
    16    15    16    1
    17    15    17    1
    18    16    17    1



#	Name:			CHEMBL123292
#	Creating user name:	trannguyen
#	Creation time:		Wed Dec  7 14:36:25 2022


#	Modifying user name:	trannguyen
#	Modification time:	Wed Dec  7 14:36:25 2022

@<TRIPOS>MOLECULE
CHEMBL123292
 22 23 0 0 0
SMALL
GASTEIGER

@<TRIPOS>ATOM
      1 C           1.9165   32.0136    8.2016 C.3     1  UNL1        0.1174
      2 O           0.5863   32.1014    8.7127 O.3     1  UNL1       -0.3840
      3 H           0.6388   32.6809    9.5023 H       1  UNL1        0.2104
      4 C           5.6224   30.5991   10.6297 C.3     1  UNL1        0.0000
      5 C           4.9959   29.8518    9.4497 C.3     1  UNL1        0.0009
      6 C           4.1662   28.6470    9.9122 C.3     1  UNL1        0.0073
      7 C           2.8673   29.0536   10.6126 C.3     1  UNL1        0.0577
      8 C           2.0656   27.8146   11.0040 C.3     1  UNL1        0.0078
      9 C           2.0780   29.9801    9.6923 C.2     1  UNL1        0.1522
     10 O           0.8897   29.7860    9.4303 O.2     1  UNL1       -0.2960
     11 C           2.8216   31.2140    9.1737 C.3     1  UNL1        0.0844
     12 C           4.1551   30.7737    8.5496 C.3     1  UNL1        0.0098
     13 C           1.8368   31.3958    6.7922 C.3     1  UNL1        0.0307
     14 C           1.8406   32.4299    5.6333 C.3     1  UNL1        0.0206
     15 C           2.9582   33.4694    5.7203 C.3     1  UNL1        0.0860
     16 C           4.3163   32.8452    5.5129 C.2     1  UNL1        0.2281
     17 O           5.3435   33.3263    5.9890 O.2     1  UNL1       -0.2747
     18 N           4.3625   31.7482    4.6928 N.am    1  UNL1       -0.2553
     19 C           3.3258   31.1873    3.9904 C.2     1  UNL1        0.2281
     20 O           3.5312   30.3320    3.1395 O.2     1  UNL1       -0.2747
     21 C           1.9441   31.7404    4.2659 C.3     1  UNL1        0.0860
     22 H           5.2825   31.3787    4.4970 H       1  UNL1        0.1575
@<TRIPOS>BOND
     1     4     5    1
     2     5     6    1
     3     5    12    1
     4     6     7    1
     5     7     8    1
     6     7     9    1
     7     9    10    2
     8     9    11    1
     9    11    12    1
    10     1     2    1
    11     1    13    1
    12     1    11    1
    13     2     3    1
    14    13    14    1
    15    14    15    1
    16    14    21    1
    17    15    16    1
    18    16    17    2
    19    16    18   am
    20    18    19   am
    21    18    22    1
    22    19    20    2
    23    19    21    1



#	Name:			CHEMBL1236282
#	Creating user name:	trannguyen
#	Creation time:		Wed Dec  7 14:36:25 2022


#	Modifying user name:	trannguyen
#	Modification time:	Wed Dec  7 14:36:25 2022

@<TRIPOS>MOLECULE
CHEMBL1236282
 24 24 0 0 0
SMALL
GASTEIGER

@<TRIPOS>ATOM
      1 C           1.9084   31.8234    7.1499 C.3     1  UNK1        0.1530
      2 O           1.1276   30.6713    6.7914 O.3     1  UNK1       -0.3783
      3 H           0.9752   30.7113    5.8317 H       1  UNK1        0.2109
      4 C           5.1795   32.0363    4.2891 C.ar    1  UNK1        0.1057
      5 C           5.3034   32.6687    5.5269 C.ar    1  UNK1        0.0181
      6 C           4.2455   32.6099    6.4401 C.ar    1  UNK1       -0.0006
      7 C           3.0527   31.9302    6.1393 C.ar    1  UNK1        0.0060
      8 C           2.9513   31.3074    4.8777 C.ar    1  UNK1       -0.0006
      9 C           4.0019   31.3721    3.9528 C.ar    1  UNK1        0.0181
     10 C           7.9460   32.4918    4.1389 C.3     1  UNK1        0.1816
     11 S           6.5340   32.1091    3.1350 S.O2    1  UNK1        0.0104
     12 O           6.2835   33.2222    2.2541 O.2     1  UNK1       -0.1686
     13 O           6.7371   30.7616    2.6074 O.2     1  UNK1       -0.1686
     14 C           2.3145   31.6733    8.6552 C.3     1  UNK1        0.1322
     15 N           1.8969   30.3882    9.2812 N.am    1  UNK1       -0.2992
     16 C           2.6430   29.7164   10.2367 C.2     0  UNK0        0.2531
     17 O           3.7547   30.1251   10.5686 O.2     0  UNK0       -0.2724
     18 H           0.9593   30.0715    9.0623 H       1  UNK1        0.1496
     19 C           1.9901   28.4444   10.8051 C.3     0  UNK0        0.2338
     20 CL          0.2329   28.4883   10.5541 Cl      0  UNK0       -0.0870
     21 CL          2.7031   27.0203   10.0260 Cl      0  UNK0       -0.0870
     22 C           1.8498   32.8777    9.4906 C.3     1  UNK1        0.1594
     23 O           0.4248   32.9866    9.4505 O.3     1  UNK1       -0.3801
     24 H           0.1973   33.2617    8.5457 H       1  UNK1        0.2105
@<TRIPOS>BOND
     1    10    11    1
     2    11    12    2
     3    11    13    2
     4    11     4    1
     5     4     5   ar
     6     4     9   ar
     7     5     6   ar
     8     6     7   ar
     9     7     1    1
    10     7     8   ar
    11     1     2    1
    12     1    14    1
    13     2     3    1
    14    14    22    1
    15    14    15    1
    16    22    23    1
    17    23    24    1
    18    15    16   am
    19    15    18    1
    20    16    17    2
    21    16    19    1
    22    19    20    1
    23    19    21    1
    24     8     9   ar



#	Name:			CHEMBL1237
#	Creating user name:	trannguyen
#	Creation time:		Wed Dec  7 14:36:25 2022


#	Modifying user name:	trannguyen
#	Modification time:	Wed Dec  7 14:36:25 2022

@<TRIPOS>MOLECULE
CHEMBL1237
 34 35 0 0 0
SMALL
GASTEIGER

@<TRIPOS>ATOM
      1 CA          2.6171   31.9342    8.7366 C.3     1  UNL1        0.1321
      2 C           1.8654   30.6862    9.3634 C.2     1  UNL1        0.2403
      3 O           0.6646   30.4612    9.2008 O.2     1  UNL1       -0.2734
      4 N           2.6763   29.7631   10.0110 N.am    1  UNL1       -0.2704
      5 CD          4.1026   29.9063   10.2290 C.3     1  UNL1        0.0940
      6 CG          4.6612   28.4982   10.1225 C.3     1  UNL1        0.0238
      7 CB          3.5107   27.6876    9.5186 C.3     1  UNL1        0.0331
      8 CA          2.2713   28.3544   10.1173 C.3     1  UNL1        0.1745
      9 C           2.0138   27.7995   11.5307 C.2     1  UNL1        0.3320
     10 O           1.5256   28.4232   12.4634 O.2     1  UNL1       -0.2485
     11 OXT         2.1896   26.4644   11.6535 O.3     1  UNL1       -0.4790
     12 HXT         1.8850   26.2645   12.5641 H       1  UNL1        0.2951
     13 N           1.9440   32.1384    7.3232 N.3     1  UNL1       -0.2835
     14 H           1.5193   31.2784    7.0066 H       1  UNL1        0.1241
     15 CA          2.7904   32.6731    6.2345 C.3     1  UNL1        0.1548
     16 C           2.0090   32.1602    5.1561 C.2     1  UNL1        0.3282
     17 O           0.8937   32.1848    5.0603 O.2     1  UNL1       -0.2488
     18 OXT         2.9229   31.7245    4.2570 O.3     1  UNL1       -0.4793
     19 HXT         3.0595   32.0348    3.3616 H       1  UNL1        0.2951
     20 C           4.1939   32.1302    5.7277 C.3     1  UNL1        0.0318
     21 C           5.6679   32.7945    6.3422 C.3     1  UNL1        0.0283
     22 C           6.3582   32.6100    7.7813 C.ar    1  UNL1       -0.0221
     23 C           6.9030   31.3566    8.1920 C.ar    1  UNL1       -0.0043
     24 C           7.4348   31.1941    9.4810 C.ar    1  UNL1       -0.0003
     25 C           7.4335   32.2698   10.3703 C.ar    1  UNL1       -0.0000
     26 C           6.7144   33.4239   10.0685 C.ar    1  UNL1       -0.0003
     27 C           6.1351   33.5665    8.8049 C.ar    1  UNL1       -0.0043
     28 CB          2.8264   33.0384    9.9214 C.3     1  UNL1        0.0251
     29 CG          2.6802   34.6618    9.5521 C.3     1  UNL1        0.0033
     30 CD          1.7161   35.7487   10.3197 C.3     1  UNL1        0.0169
     31 NZ         -1.1038   35.9226    9.9830 N.3     1  UNL1       -0.3211
     32 CE         -0.0572   35.2285   10.6251 C.3     1  UNL1        0.0651
     33 HZ1        -1.0265   36.8040   10.4893 H       1  UNL1        0.1189
     34 HZ2        -1.8994   35.4389   10.4364 H       1  UNL1        0.1189
@<TRIPOS>BOND
     1    31    32    1
     2    31    33    1
     3    31    34    1
     4    32    30    1
     5    30    29    1
     6    29    28    1
     7     1    13    1
     8     1     2    1
     9     1    28    1
    10    13    15    1
    11    13    14    1
    12    15    20    1
    13    15    16    1
    14    20    21    1
    15    21    22    1
    16    22    23   ar
    17    22    27   ar
    18    23    24   ar
    19    24    25   ar
    20    25    26   ar
    21    26    27   ar
    22    16    17    2
    23    16    18    1
    24    18    19    1
    25     2     3    2
    26     2     4   am
    27     4     5    1
    28     4     8    1
    29     5     6    1
    30     6     7    1
    31     7     8    1
    32     8     9    1
    33     9    10    2
    34     9    11    1
    35    11    12    1



#	Name:			CHEMBL1237044
#	Creating user name:	trannguyen
#	Creation time:		Wed Dec  7 14:36:25 2022


#	Modifying user name:	trannguyen
#	Modification time:	Wed Dec  7 14:36:25 2022

@<TRIPOS>MOLECULE
CHEMBL1237044
 20 21 0 0 0
SMALL
GASTEIGER

@<TRIPOS>ATOM
      1 C           2.0790   31.9563    8.1782 C.3     1  UNL1        0.1082
      2 O           0.9555   32.1764    7.3029 O.3     1  UNL1       -0.3826
      3 C           2.2035   33.2694    8.9988 C.3     1  UNL1        0.0312
      4 C           3.5025   33.4341    9.7881 C.3     1  UNL1        0.0027
      5 C           4.7345   33.1152    8.9582 C.3     1  UNL1        0.0002
      6 C           4.5964   31.7660    8.2629 C.3     1  UNL1        0.0041
      7 C           3.3793   31.7036    7.3153 C.3     1  UNL1        0.0445
      8 H           0.1676   32.2703    7.8685 H       1  UNL1        0.2107
      9 C           2.2484   28.7229   10.3260 C.ar    1  UNL1        0.1385
     10 C           0.8909   28.4206   10.4624 C.ar    1  UNL1        0.0369
     11 C          -0.0671   29.2500    9.8780 C.ar    1  UNL1        0.0029
     12 C           0.3210   30.3685    9.1476 C.ar    1  UNL1       -0.0018
     13 C           1.6887   30.7007    8.9895 C.ar    1  UNL1        0.0048
     14 C           2.6229   29.8618    9.6225 C.ar    1  UNL1        0.0349
     15 C           4.4732   27.9537   10.1332 C.3     1  UNL1        0.2525
     16 O           3.2747   28.0086   10.8992 O.3     1  UNL1       -0.4714
     17 C           3.4592   32.6585    6.0736 C.3     1  UNL1        0.0748
     18 N           2.7181   32.3079    4.8330 N.3     1  UNL1       -0.2702
     19 C           2.8625   33.3903    3.8498 C.3     1  UNL1        0.0897
     20 C           3.0993   31.0461    4.2124 C.3     1  UNL1        0.0897
@<TRIPOS>BOND
     1    15    16    1
     2    16     9    1
     3     9    10   ar
     4     9    14   ar
     5    10    11   ar
     6    11    12   ar
     7    12    13   ar
     8    13     1    1
     9    13    14   ar
    10     1     2    1
    11     1     3    1
    12     1     7    1
    13     2     8    1
    14     3     4    1
    15     4     5    1
    16     5     6    1
    17     6     7    1
    18     7    17    1
    19    17    18    1
    20    18    19    1
    21    18    20    1



#	Name:			CHEMBL1243
#	Creating user name:	trannguyen
#	Creation time:		Wed Dec  7 14:36:25 2022


#	Modifying user name:	trannguyen
#	Modification time:	Wed Dec  7 14:36:25 2022

@<TRIPOS>MOLECULE
CHEMBL1243
 22 23 0 0 0
SMALL
GASTEIGER

@<TRIPOS>ATOM
      1 S           4.6732   33.0469    7.4827 S.O2    1  UNL1        0.0759
      2 O           5.7082   33.6846    8.2613 O.2     1  UNL1       -0.1499
      3 O           3.4344   33.7424    7.1876 O.2     1  UNL1       -0.1499
      4 N           6.9347   31.1277    2.3049 N.pl3   1  UNL1       -0.3570
      5 C           6.4211   31.4992    3.5531 C.ar    1  UNL1        0.0416
      6 C           7.2547   32.0810    4.5144 C.ar    1  UNL1        0.0155
      7 C           6.7311   32.5565    5.7207 C.ar    1  UNL1        0.0214
      8 C           5.3528   32.4980    5.9404 C.ar    1  UNL1        0.1253
      9 C           4.5037   31.9701    4.9681 C.ar    1  UNL1        0.0214
     10 C           5.0395   31.5012    3.7677 C.ar    1  UNL1        0.0155
     11 H           7.9099   30.8468    2.3308 H       1  UNL1        0.1424
     12 H           6.3576   30.4468    1.8193 H       1  UNL1        0.1424
     13 N           4.2144   31.6283    8.2156 N.am    1  UNL1       -0.1814
     14 C           3.4830   31.5417    9.4080 C.2     1  UNL1        0.2643
     15 O           3.1752   32.5006   10.0937 O.2     1  UNL1       -0.2686
     16 H           4.6090   30.8104    7.7670 H       1  UNL1        0.1769
     17 C           3.1153   30.1597    9.8145 C.ar    1  UNL1        0.0548
     18 C           1.8018   29.8227   10.1670 C.ar    1  UNL1        0.0046
     19 C           1.4902   28.5105   10.5263 C.ar    1  UNL1        0.0001
     20 C           2.4850   27.5333   10.5356 C.ar    1  UNL1        0.0000
     21 C           3.7965   27.8652   10.1955 C.ar    1  UNL1        0.0001
     22 C           4.1146   29.1772    9.8384 C.ar    1  UNL1        0.0046
@<TRIPOS>BOND
     1     4     5    1
     2     4    11    1
     3     4    12    1
     4     5     6   ar
     5     5    10   ar
     6     6     7   ar
     7     7     8   ar
     8     8     1    1
     9     8     9   ar
    10     1     2    2
    11     1     3    2
    12     1    13    1
    13    13    14   am
    14    13    16    1
    15    14    15    2
    16    14    17    1
    17    17    18   ar
    18    17    22   ar
    19    18    19   ar
    20    19    20   ar
    21    20    21   ar
    22    21    22   ar
    23     9    10   ar



#	Name:			CHEMBL1255834
#	Creating user name:	trannguyen
#	Creation time:		Wed Dec  7 14:36:25 2022


#	Modifying user name:	trannguyen
#	Modification time:	Wed Dec  7 14:36:25 2022

@<TRIPOS>MOLECULE
CHEMBL1255834
 23 25 0 0 0
SMALL
GASTEIGER

@<TRIPOS>ATOM
      1 C           4.5880   29.3233   10.1113 C.ar    1  UNL1       -0.0024
      2 C           5.7854   29.4656   10.7860 C.ar    1  UNL1        0.0681
      3 N           6.2906   30.7106   10.5139 N.ar    1  UNL1       -0.3523
      4 H           7.1612   31.0793   10.8745 H       1  UNL1        0.1660
      5 C           5.4539   31.3902    9.6611 C.ar    1  UNL1        0.0565
      6 C           5.5611   32.6691    9.1055 C.ar    1  UNL1        0.0201
      7 C           4.5302   33.0942    8.2602 C.ar    1  UNL1        0.0384
      8 C           3.4318   32.2805    7.9893 C.ar    1  UNL1        0.1392
      9 C           3.3660   30.9910    8.5251 C.ar    1  UNL1        0.0381
     10 C           4.3816   30.5398    9.3905 C.ar    1  UNL1        0.0161
     11 C           3.6921   28.1161   10.0896 C.3     1  UNL1        0.0434
     12 C           1.2027   28.6885   10.2784 C.3     1  UNL1        0.0172
     13 C           2.4467   28.1771   11.0053 C.3     1  UNL1        0.0553
     14 N           2.1581   26.8958   11.6652 N.3     1  UNL1       -0.3219
     15 H           1.9640   26.1932   10.9497 H       1  UNL1        0.1188
     16 H           1.2968   26.9802   12.2070 H       1  UNL1        0.1188
     17 O           2.4682   32.8288    7.1840 O.3     1  UNL1       -0.4701
     18 C           2.1363   32.0547    6.0256 C.3     1  UNL1        0.2384
     19 C           3.1897   32.3147    4.9921 C.ar    1  UNL1        0.0507
     20 C           4.2029   31.4835    4.5539 C.ar    1  UNL1        0.0063
     21 C           5.0489   32.1154    3.5996 C.ar    1  UNL1        0.0073
     22 C           4.6582   33.4101    3.3436 C.ar    1  UNL1        0.0352
     23 S           3.2776   33.8561    4.2465 S.2     1  UNL1       -0.0871
@<TRIPOS>BOND
     1    12    13    1
     2    13    14    1
     3    13    11    1
     4    14    15    1
     5    14    16    1
     6    11     1    1
     7     1     2   ar
     8     1    10   ar
     9     2     3   ar
    10     3     4    1
    11     3     5   ar
    12     5     6   ar
    13     5    10   ar
    14     6     7   ar
    15     7     8   ar
    16     8    17    1
    17     8     9   ar
    18    17    18    1
    19    18    19    1
    20    19    20   ar
    21    19    23   ar
    22    20    21   ar
    23    21    22   ar
    24    22    23   ar
    25     9    10   ar



#	Name:			CHEMBL1255837
#	Creating user name:	trannguyen
#	Creation time:		Wed Dec  7 14:36:25 2022


#	Modifying user name:	trannguyen
#	Modification time:	Wed Dec  7 14:36:25 2022

@<TRIPOS>MOLECULE
CHEMBL1255837
 48 55 0 0 0
SMALL
GASTEIGER

@<TRIPOS>ATOM
      1 C           7.2803   36.5644   -7.6237 C.3     1  UNL1        0.2253
      2 O           6.5573   37.4786   -6.7839 O.3     1  UNL1       -0.2976
      3 C           7.2849   38.6932   -6.6596 C.3     1  UNL1        0.2754
      4 O           8.0626   38.6450   -5.4791 O.3     1  UNL1       -0.3478
      5 C           6.3855   39.9569   -6.5993 C.3     1  UNL1        0.1465
      6 C           5.0174   39.8348   -5.9192 C.3     1  UNL1        0.0285
      7 C           4.0019   39.9866   -7.0543 C.3     1  UNL1        0.0234
      8 C           4.7100   40.8760   -8.0662 C.3     1  UNL1        0.0937
      9 N           6.0915   40.4789   -7.9293 N.am    1  UNL1       -0.2734
     10 C           7.0836   40.6887   -8.8665 C.2     1  UNL1        0.2444
     11 O           6.9172   41.4157   -9.8396 O.2     1  UNL1       -0.2731
     12 C           8.4430   40.0091   -8.5031 C.3     1  UNL1        0.1604
     13 N           8.2275   38.7394   -7.7384 N.am    1  UNL1       -0.2268
     14 C           8.3821   37.4650   -8.2385 C.2     1  UNL1        0.2719
     15 O           9.2992   37.1054   -8.9590 O.2     1  UNL1       -0.2704
     16 H           8.9812   38.5795   -5.7866 H       1  UNL1        0.2145
     17 N           7.9233   35.5557   -6.7792 N.am    1  UNL1       -0.2790
     18 C           7.2703   34.6378   -5.9865 C.2     1  UNL1        0.2252
     19 O           6.0518   34.5127   -5.9299 O.2     1  UNL1       -0.2750
     20 H           8.9033   35.7119   -6.5829 H       1  UNL1        0.1519
     21 C           8.1929   33.6957   -5.2198 C.3     1  UNL1        0.0928
     22 C           7.8607   33.6987   -3.7182 C.3     1  UNL1        0.0162
     23 C           8.8867   32.8585   -2.9295 C.3     1  UNL1        0.0379
     24 C           8.6221   32.9187   -1.4394 C.ar    1  UNL1       -0.0200
     25 C           7.7188   32.1139   -0.7375 C.ar    1  UNL1       -0.0041
     26 C           7.5382   32.2819    0.6444 C.ar    1  UNL1        0.0012
     27 C           8.2381   33.2592    1.3746 C.ar    1  UNL1        0.0169
     28 C           9.1442   34.0440    0.6602 C.ar    1  UNL1        0.0560
     29 N           9.9879   35.0707    1.0261 N.ar    1  UNL1       -0.3523
     30 H          10.0605   35.4493    1.9602 H       1  UNL1        0.1660
     31 C          10.7204   35.5010   -0.0634 C.ar    1  UNL1        0.0681
     32 C          10.3397   34.7434   -1.1475 C.ar    1  UNL1       -0.0028
     33 C           9.3336   33.8665   -0.6959 C.ar    1  UNL1        0.0092
     34 C          10.7660   34.7059   -2.5795 C.3     1  UNL1        0.0442
     35 C          10.3644   33.3286   -3.2546 C.3     1  UNL1        0.0659
     36 N          10.5744   33.2487   -4.7212 N.3     1  UNL1       -0.2717
     37 C          11.9588   33.4913   -5.1131 C.3     1  UNL1        0.0896
     38 C           9.6500   34.1178   -5.4621 C.3     1  UNL1        0.0812
     39 C           6.9345   34.8427   -9.5272 C.3     1  UNL1        0.0047
     40 C           6.3217   35.9986   -8.7192 C.3     1  UNL1        0.0516
     41 C           5.6807   37.0662   -9.6153 C.3     1  UNL1        0.0047
     42 C           9.4470   39.9994   -9.7014 C.3     1  UNL1        0.0557
     43 C          10.7849   40.7247   -9.6532 C.ar    1  UNL1       -0.0200
     44 C          10.8599   42.0928   -9.9551 C.ar    1  UNL1       -0.0042
     45 C          12.0654   42.7981   -9.8170 C.ar    1  UNL1       -0.0003
     46 C          13.2127   42.1540   -9.3615 C.ar    1  UNL1       -0.0000
     47 C          13.1693   40.7929   -9.1135 C.ar    1  UNL1       -0.0003
     48 C          11.9765   40.0949   -9.3022 C.ar    1  UNL1       -0.0042
@<TRIPOS>BOND
     1    39    40    1
     2    40    41    1
     3     1     2    1
     4     1    14    1
     5     1    40    1
     6     1    17    1
     7    17    18   am
     8    17    20    1
     9    18    19    2
    10    18    21    1
    11    21    22    1
    12    21    38    1
    13    22    23    1
    14    23    24    1
    15    23    35    1
    16    24    25   ar
    17    24    33   ar
    18    25    26   ar
    19    26    27   ar
    20    27    28   ar
    21    28    29   ar
    22    28    33   ar
    23    29    31   ar
    24    29    30    1
    25    31    32   ar
    26    32    33   ar
    27    32    34    1
    28    34    35    1
    29    35    36    1
    30    36    38    1
    31    36    37    1
    32     2     3    1
    33     3     5    1
    34     3    13    1
    35     3     4    1
    36     4    16    1
    37     5     6    1
    38     5     9    1
    39     6     7    1
    40     7     8    1
    41     8     9    1
    42     9    10   am
    43    10    12    1
    44    10    11    2
    45    12    13    1
    46    12    42    1
    47    42    43    1
    48    43    44   ar
    49    43    48   ar
    50    44    45   ar
    51    45    46   ar
    52    46    47   ar
    53    47    48   ar
    54    13    14   am
    55    14    15    2



#	Name:			CHEMBL1255901
#	Creating user name:	trannguyen
#	Creation time:		Wed Dec  7 14:36:25 2022


#	Modifying user name:	trannguyen
#	Modification time:	Wed Dec  7 14:36:25 2022

@<TRIPOS>MOLECULE
CHEMBL1255901
 21 23 0 0 0
SMALL
GASTEIGER

@<TRIPOS>ATOM
      1 C           3.7910   34.6985    9.1256 C.3     1  UNL1        0.0301
      2 C           2.6989   33.6962    9.3098 C.2     1  UNL1       -0.0324
      3 C           2.7961   32.3801    9.0190 C.2     1  UNL1       -0.0279
      4 C           4.0179   31.5367    8.5932 C.3     1  UNL1        0.0466
      5 C           4.5337   32.1344    7.3535 C.2     1  UNL1       -0.0304
      6 C           3.5158   32.3382    6.4736 C.2     1  UNL1       -0.0459
      7 C           3.7373   33.2804    5.3312 C.3     1  UNL1        0.0261
      8 C           2.0162   31.7822    6.8618 C.3     1  UNL1        0.0440
      9 C           1.6585   31.5325    8.5166 C.3     1  UNL1        0.0785
     10 N           0.3218   32.0837    8.7890 N.3     1  UNL1       -0.3169
     11 C           1.8297   30.1433    9.3174 C.ar    1  UNL1        0.0058
     12 C           0.6452   29.3852    9.7371 C.ar    1  UNL1        0.0033
     13 C           0.7287   28.3258   10.5605 C.ar    1  UNL1        0.0603
     14 C           2.0495   27.8476   11.0150 C.ar    1  UNL1        0.2575
     15 O           2.1652   26.8364   11.7141 O.2     1  UNL1       -0.2672
     16 N           3.1175   28.6058   10.6337 N.ar    1  UNL1       -0.3248
     17 H           4.0183   28.2871   10.9688 H       1  UNL1        0.1686
     18 C           3.0283   29.7463    9.8634 C.ar    1  UNL1        0.0342
     19 C           4.3568   30.5076    9.6490 C.3     1  UNL1        0.0518
     20 H           0.2168   32.9797    8.3219 H       1  UNL1        0.1193
     21 H           0.2562   32.2656    9.7897 H       1  UNL1        0.1193
@<TRIPOS>BOND
     1     1     2    1
     2     2     3    2
     3     3     4    1
     4     3     9    1
     5     4     5    1
     6     4    19    1
     7     5     6    2
     8     6     7    1
     9     6     8    1
    10     8     9    1
    11     9    10    1
    12     9    11    1
    13    10    20    1
    14    10    21    1
    15    11    12   ar
    16    11    18   ar
    17    12    13   ar
    18    13    14   ar
    19    14    15    2
    20    14    16   ar
    21    16    17    1
    22    16    18   ar
    23    18    19    1



#	Name:			CHEMBL1256017
#	Creating user name:	trannguyen
#	Creation time:		Wed Dec  7 14:36:25 2022


#	Modifying user name:	trannguyen
#	Modification time:	Wed Dec  7 14:36:25 2022

@<TRIPOS>MOLECULE
CHEMBL1256017
 20 19 0 0 0
SMALL
GASTEIGER

@<TRIPOS>ATOM
      1 C           1.4409   30.4524    8.1175 C.3     1  UNL1        0.0464
      2 C           1.5206   30.5621    9.6436 C.3     1  UNL1        0.1740
      3 N           1.9745   29.2957   10.1898 N.pl3   1  UNL1       -0.2625
      4 H           2.9836   29.2268   10.2649 H       1  UNL1        0.2587
      5 N           1.7514   27.7847   12.0063 N.pl3   1  UNL1       -0.1298
      6 C           1.2963   28.4720   11.0178 C.cat   1  UNL1        0.3769
      7 N          -0.0193   28.4329   10.7336 N.pl3   1  UNL1       -0.2892
      8 H           2.7551   27.9833   12.0814 H       1  UNL1        0.3062
      9 H          -0.5674   28.0712   11.5122 H       1  UNL1        0.2546
     10 H          -0.4159   29.3012   10.3997 H       1  UNL1        0.2546
     11 C           2.2084   31.5839    7.4231 C.3     1  UNL1        0.0464
     12 C           2.0415   31.5432    5.9025 C.3     1  UNL1        0.1740
     13 N           1.6626   32.8375    5.3717 N.pl3   1  UNL1       -0.2625
     14 H           0.7536   33.1811    5.6572 H       1  UNL1        0.2587
     15 C           2.4890   33.7732    4.8641 C.cat   1  UNL1        0.3769
     16 N           2.8279   34.8969    5.3743 N.pl3   1  UNL1       -0.1298
     17 N           2.9955   33.4205    3.6672 N.pl3   1  UNL1       -0.2892
     18 H           2.3957   34.9940    6.2914 H       1  UNL1        0.3062
     19 H           2.2865   33.1541    2.9971 H       1  UNL1        0.2546
     20 H           3.5343   34.2012    3.3000 H       1  UNL1        0.2546
@<TRIPOS>BOND
     1     5     6    2
     2     5     8    1
     3     6     7    1
     4     6     3    1
     5     7     9    1
     6     7    10    1
     7     3     2    1
     8     3     4    1
     9     2     1    1
    10     1    11    1
    11    11    12    1
    12    12    13    1
    13    13    15    1
    14    13    14    1
    15    15    16    2
    16    15    17    1
    17    16    18    1
    18    17    19    1
    19    17    20    1



#	Name:			CHEMBL1262
#	Creating user name:	trannguyen
#	Creation time:		Wed Dec  7 14:36:25 2022


#	Modifying user name:	trannguyen
#	Modification time:	Wed Dec  7 14:36:25 2022

@<TRIPOS>MOLECULE
CHEMBL1262
 26 28 0 0 0
SMALL
GASTEIGER

@<TRIPOS>ATOM
      1 N           3.0008   32.9409    7.5021 N.2     1  UNL1       -0.0851
      2 C           3.8726   32.2155    8.1435 C.2     1  UNL1        0.1206
      3 C           3.3982   31.0358    8.9602 C.ar    1  UNL1        0.0292
      4 C           4.3435   30.1092    9.4319 C.ar    1  UNL1        0.0030
      5 C           3.9559   29.0076   10.2066 C.ar    1  UNL1        0.0115
      6 C           2.6179   28.8321   10.5372 C.ar    1  UNL1        0.0585
      7 CL          2.1411   27.4833   11.4912 Cl      1  UNL1       -0.0822
      8 C           1.6648   29.7399   10.0940 C.ar    1  UNL1        0.0228
      9 C           2.0430   30.8360    9.3005 C.ar    1  UNL1        0.0598
     10 CL          0.7399   31.8351    8.7556 Cl      1  UNL1       -0.0822
     11 O           3.6050   34.0083    6.8156 O.2     1  UNL1       -0.3726
     12 C           3.2000   33.9752    5.4428 C.3     1  UNL1        0.2659
     13 CL          7.5610   31.2778    2.2478 Cl      1  UNL1       -0.0822
     14 C           6.3087   32.0298    3.1572 C.ar    1  UNL1        0.0585
     15 C           6.4010   33.3814    3.4724 C.ar    1  UNL1        0.0112
     16 C           5.3846   33.9899    4.2121 C.ar    1  UNL1        0.0011
     17 C           4.2610   33.2571    4.6439 C.ar    1  UNL1        0.0346
     18 C           4.1917   31.8931    4.3143 C.ar    1  UNL1        0.0581
     19 CL          2.8687   30.8931    4.7978 Cl      1  UNL1       -0.0824
     20 C           5.2113   31.2830    3.5746 C.ar    1  UNL1        0.0226
     21 C           5.3623   32.5481    8.1354 C.3     1  UNL1        0.1567
     22 N           5.8472   33.0924    9.3963 N.ar    1  UNL1       -0.3019
     23 C           6.9887   32.6849   10.0362 C.ar    1  UNL1        0.0983
     24 C           7.0371   33.4310   11.1908 C.ar    1  UNL1        0.1193
     25 N           5.9572   34.2684   11.2714 N.ar    1  UNL1       -0.2223
     26 C           5.2747   34.0636   10.1697 C.ar    1  UNL1        0.1789
@<TRIPOS>BOND
     1    13    14    1
     2    14    15   ar
     3    14    20   ar
     4    15    16   ar
     5    16    17   ar
     6    17    12    1
     7    17    18   ar
     8    12    11    1
     9    11     1    1
    10     1     2    2
    11     2    21    1
    12     2     3    1
    13    21    22    1
    14    22    23   ar
    15    22    26   ar
    16    23    24   ar
    17    24    25   ar
    18    25    26   ar
    19     3     4   ar
    20     3     9   ar
    21     4     5   ar
    22     5     6   ar
    23     6     7    1
    24     6     8   ar
    25     8     9   ar
    26     9    10    1
    27    18    19    1
    28    18    20   ar



#	Name:			CHEMBL127516
#	Creating user name:	trannguyen
#	Creation time:		Wed Dec  7 14:36:25 2022


#	Modifying user name:	trannguyen
#	Modification time:	Wed Dec  7 14:36:25 2022

@<TRIPOS>MOLECULE
CHEMBL127516
 16 16 0 0 0
SMALL
GASTEIGER

@<TRIPOS>ATOM
      1 C           2.0510   30.5157    8.8462 C.ar    1  UNL1        0.0757
      2 C           0.8699   29.8792    9.2476 C.ar    1  UNL1        0.0077
      3 C           0.9137   28.8737   10.2192 C.ar    1  UNL1        0.0143
      4 C           2.1188   28.5248   10.8349 C.ar    1  UNL1        0.0415
      5 N           2.1720   27.4336   11.7087 N.pl3   1  UNL1       -0.3570
      6 C           3.2987   29.1277   10.3919 C.ar    1  UNL1        0.0143
      7 C           3.2656   30.1360    9.4245 C.ar    1  UNL1        0.0077
      8 H           1.3051   27.2677   12.2103 H       1  UNL1        0.1424
      9 H           2.9756   27.4465   12.3294 H       1  UNL1        0.1424
     10 C           2.0667   31.5805    7.8103 C.2     1  UNL1        0.3412
     11 O           2.5580   32.6877    7.9869 O.2     1  UNL1       -0.2449
     12 O           1.4966   31.1337    6.6677 O.3     1  UNL1       -0.4454
     13 C           2.2979   31.2431    5.4806 C.3     1  UNL1        0.2088
     14 C           1.6165   32.1263    4.4343 C.3     1  UNL1        0.0475
     15 C           3.2492   34.0676    4.3861 C.3     1  UNL1        0.0001
     16 C           2.6452   32.9071    3.6133 C.3     1  UNL1        0.0038
@<TRIPOS>BOND
     1    15    16    1
     2    16    14    1
     3    14    13    1
     4    13    12    1
     5    12    10    1
     6    10    11    2
     7    10     1    1
     8     1     2   ar
     9     1     7   ar
    10     2     3   ar
    11     3     4   ar
    12     4     5    1
    13     4     6   ar
    14     5     8    1
    15     5     9    1
    16     6     7   ar



#	Name:			CHEMBL1276308
#	Creating user name:	trannguyen
#	Creation time:		Wed Dec  7 14:36:25 2022


#	Modifying user name:	trannguyen
#	Modification time:	Wed Dec  7 14:36:25 2022

@<TRIPOS>MOLECULE
CHEMBL1276308
 33 37 0 0 0
SMALL
GASTEIGER

@<TRIPOS>ATOM
      1 C           8.3314   35.0416    9.8551 C.3     1  UNL1        0.1411
      2 O           9.2004   35.0846   11.0141 O.3     1  UNL1       -0.3753
      3 C           9.2581   34.6638    8.6975 C.3     1  UNL1        0.0395
      4 C           9.5563   33.2130    9.0158 C.3     1  UNL1        0.0039
      5 C           8.1586   32.6205    9.2737 C.3     1  UNL1        0.0070
      6 C           7.5287   31.9153    8.0044 C.3     1  UNL1        0.0187
      7 C           8.5207   31.6269    6.8551 C.3     1  UNL1        0.0087
      8 C           7.8123   31.0157    5.6563 C.3     1  UNL1        0.0264
      9 C           6.7837   31.9915    5.1538 C.2     1  UNL1       -0.0239
     10 C           6.6774   32.2652    3.8443 C.2     1  UNL1        0.0329
     11 C           5.6904   33.2478    3.3435 C.2     1  UNL1        0.1731
     12 O           5.6161   33.4704    2.1402 O.2     1  UNL1       -0.2913
     13 C           4.8701   34.0036    4.3556 C.3     1  UNL1        0.0738
     14 C           4.6233   33.1547    5.5962 C.3     1  UNL1        0.0335
     15 C           5.9070   32.5842    6.1683 C.2     1  UNL1       -0.0332
     16 C           6.2182   32.5046    7.4886 C.2     1  UNL1       -0.0450
     17 C           5.2725   32.8767    8.6174 C.3     1  UNL1        0.0403
     18 C           5.9317   34.0311    9.4026 C.3     1  UNL1        0.0116
     19 C           7.3468   33.8082    9.9928 C.3     1  UNL1        0.0342
     20 C           7.1676   33.5621   11.5229 C.3     1  UNL1        0.0034
     21 H           9.7664   35.8696   10.9182 H       1  UNL1        0.2114
     22 C           4.7266   31.6050    9.2822 C.ar    1  UNL1       -0.0187
     23 C           5.5083   30.5559    9.7670 C.ar    1  UNL1       -0.0027
     24 C           4.9433   29.3533   10.2150 C.ar    1  UNL1        0.0142
     25 C           3.5684   29.1174   10.1523 C.ar    1  UNL1        0.0479
     26 C           2.7735   30.1590    9.6681 C.ar    1  UNL1        0.0142
     27 C           3.3376   31.3788    9.2527 C.ar    1  UNL1       -0.0027
     28 N           3.0804   27.8549   10.5162 N.pl3   1  UNL1       -0.3041
     29 C           3.0505   26.8190    9.4897 C.3     1  UNL1        0.1122
     30 C           1.9005   27.9152   11.3797 C.3     1  UNL1        0.1122
     31 C           8.2873   38.9984    9.4230 C.3     1  UNL1        0.0900
     32 C           8.0360   37.5842    9.5718 C.1     1  UNL1       -0.0878
     33 C           7.8288   36.4187    9.6944 C.1     1  UNL1       -0.0657
@<TRIPOS>BOND
     1    31    32    1
     2    32    33    3
     3     1     3    1
     4     1    19    1
     5     1     2    1
     6     1    33    1
     7     2    21    1
     8     3     4    1
     9     4     5    1
    10     5     6    1
    11     5    19    1
    12     6     7    1
    13     6    16    1
    14     7     8    1
    15     8     9    1
    16     9    10    2
    17     9    15    1
    18    10    11    1
    19    11    13    1
    20    11    12    2
    21    13    14    1
    22    14    15    1
    23    15    16    2
    24    16    17    1
    25    17    18    1
    26    17    22    1
    27    22    23   ar
    28    22    27   ar
    29    23    24   ar
    30    24    25   ar
    31    25    28    1
    32    25    26   ar
    33    28    29    1
    34    28    30    1
    35    26    27   ar
    36    18    19    1
    37    19    20    1



#	Name:			CHEMBL128
#	Creating user name:	trannguyen
#	Creation time:		Wed Dec  7 14:36:25 2022


#	Modifying user name:	trannguyen
#	Modification time:	Wed Dec  7 14:36:25 2022

@<TRIPOS>MOLECULE
CHEMBL128
 22 23 0 0 0
SMALL
GASTEIGER

@<TRIPOS>ATOM
      1 C           3.6291   29.2281    9.6306 C.ar    1  UNL1        0.0030
      2 C           4.8669   29.0112   10.2498 C.ar    1  UNL1       -0.0010
      3 C           5.8535   30.0006   10.2740 C.ar    1  UNL1        0.0167
      4 C           5.5594   31.2222    9.6614 C.ar    1  UNL1        0.0563
      5 N           6.3160   32.3655    9.5586 N.ar    1  UNL1       -0.3523
      6 H           7.2421   32.4751    9.9464 H       1  UNL1        0.1660
      7 C           5.6273   33.3298    8.8753 C.ar    1  UNL1        0.0681
      8 C           4.4021   32.8097    8.5097 C.ar    1  UNL1       -0.0024
      9 C           4.3455   31.4762    9.0261 C.ar    1  UNL1        0.0128
     10 C           3.3660   30.4627    9.0134 C.ar    1  UNL1       -0.0014
     11 C           2.5812   28.1499    9.6333 C.3     1  UNL1        0.1952
     12 S           1.7368   28.1421   11.2234 S.O2    1  UNL1        0.0451
     13 O           1.8105   29.4596   11.8273 O.2     1  UNL1       -0.1572
     14 O           2.0586   26.9474   11.9675 O.2     1  UNL1       -0.1572
     15 C          -0.4216   29.0254    9.8666 C.3     1  UNL1        0.1099
     16 N           0.1200   27.9823   10.7415 N.3     1  UNL1       -0.1815
     17 H          -0.0390   27.0253   10.4189 H       1  UNL1        0.1485
     18 C           3.3304   33.5146    7.7383 C.3     1  UNL1        0.0452
     19 C           3.4202   33.2361    6.2249 C.3     1  UNL1        0.0769
     20 N           2.2335   32.5579    5.6596 N.3     1  UNL1       -0.2700
     21 C           1.7432   33.2956    4.4906 C.3     1  UNL1        0.0897
     22 C           2.5135   31.1719    5.2843 C.3     1  UNL1        0.0897
@<TRIPOS>BOND
     1    15    16    1
     2    16    12    1
     3    16    17    1
     4    12    13    2
     5    12    14    2
     6    12    11    1
     7    11     1    1
     8     1     2   ar
     9     1    10   ar
    10     2     3   ar
    11     3     4   ar
    12     4     5   ar
    13     4     9   ar
    14     5     6    1
    15     5     7   ar
    16     7     8   ar
    17     8    18    1
    18     8     9   ar
    19    18    19    1
    20    19    20    1
    21    20    21    1
    22    20    22    1
    23     9    10   ar



#	Name:			CHEMBL1282
#	Creating user name:	trannguyen
#	Creation time:		Wed Dec  7 14:36:25 2022


#	Modifying user name:	trannguyen
#	Modification time:	Wed Dec  7 14:36:25 2022

@<TRIPOS>MOLECULE
CHEMBL1282
 20 22 0 0 0
SMALL
GASTEIGER

@<TRIPOS>ATOM
      1 N           1.8250   31.6660    8.0119 N.ar    1  UNL1       -0.3089
      2 C           0.4668   31.4856    8.1003 C.ar    1  UNL1        0.1786
      3 N           0.1475   30.5804    8.9903 N.ar    1  UNL1       -0.2211
      4 C           1.3531   30.1370    9.4924 C.ar    1  UNL1        0.1298
      5 C           1.5884   29.1117   10.4334 C.ar    1  UNL1        0.1446
      6 N           0.5609   28.3593   10.9929 N.pl3   1  UNL1       -0.3414
      7 N           2.8510   28.8419   10.8246 N.ar    1  UNL1       -0.2295
      8 C           3.8824   29.5436   10.3326 C.ar    1  UNL1        0.0842
      9 C           5.1527   29.2199   10.7781 C.ar    1  UNL1        0.0192
     10 C           6.2889   29.9126   10.3516 C.ar    1  UNL1        0.0015
     11 C           6.1595   30.9687    9.4570 C.ar    1  UNL1        0.0001
     12 C           4.8992   31.3154    8.9725 C.ar    1  UNL1        0.0030
     13 C           3.7554   30.5980    9.3896 C.ar    1  UNL1        0.0351
     14 C           2.4281   30.8508    8.9496 C.ar    1  UNL1        0.0831
     15 H          -0.3335   28.8344   10.9407 H       1  UNL1        0.1438
     16 H           0.8381   27.9733   11.8853 H       1  UNL1        0.1438
     17 C           2.4333   32.4141    6.9278 C.3     1  UNL1        0.1075
     18 C           1.3525   32.6395    4.6835 C.3     1  UNL1        0.0020
     19 C           2.3018   31.7846    5.5298 C.3     1  UNL1        0.0227
     20 C           3.6470   31.6606    4.8096 C.3     1  UNL1        0.0020
@<TRIPOS>BOND
     1    18    19    1
     2    19    20    1
     3    19    17    1
     4    17     1    1
     5     1     2   ar
     6     1    14   ar
     7     2     3   ar
     8     3     4   ar
     9     4     5   ar
    10     4    14   ar
    11     5     6    1
    12     5     7   ar
    13     6    15    1
    14     6    16    1
    15     7     8   ar
    16     8     9   ar
    17     8    13   ar
    18     9    10   ar
    19    10    11   ar
    20    11    12   ar
    21    12    13   ar
    22    13    14   ar



#	Name:			CHEMBL1289
#	Creating user name:	trannguyen
#	Creation time:		Wed Dec  7 14:36:25 2022


#	Modifying user name:	trannguyen
#	Modification time:	Wed Dec  7 14:36:25 2022

@<TRIPOS>MOLECULE
CHEMBL1289
 14 14 0 0 0
SMALL
GASTEIGER

@<TRIPOS>ATOM
      1 CL          2.2341   27.5988   11.3247 Cl      1  UNL1       -0.0813
      2 C           2.1913   28.9449   10.2436 C.ar    1  UNL1        0.0692
      3 C           3.4006   29.5623    9.9254 C.ar    1  UNL1        0.0267
      4 C           3.4166   30.6564    9.0566 C.ar    1  UNL1        0.0925
      5 CL          4.9458   31.3850    8.7077 Cl      1  UNL1       -0.0791
      6 C           2.2274   31.1456    8.4890 C.ar    1  UNL1        0.1514
      7 C           1.0199   30.5186    8.8132 C.ar    1  UNL1        0.0501
      8 C           1.0003   29.4246    9.6893 C.ar    1  UNL1        0.0713
      9 CL         -0.5357   28.7157   10.0460 Cl      1  UNL1       -0.0813
     10 O           2.3446   32.2217    7.6496 O.3     1  UNL1       -0.4603
     11 C           2.0321   32.0409    6.2700 C.3     1  UNL1        0.2818
     12 C           3.2807   31.9441    5.5088 C.1     1  UNL1       -0.0334
     13 C           4.3114   31.8865    4.8945 C.1     1  UNL1       -0.0257
     14 I           6.1007   31.8096    3.8461 I       1  UNL1        0.0182
@<TRIPOS>BOND
     1     1     2    1
     2     2     3   ar
     3     2     8   ar
     4     3     4   ar
     5     4     5    1
     6     4     6   ar
     7     6    10    1
     8     6     7   ar
     9    10    11    1
    10    11    12    1
    11    12    13    3
    12    13    14    1
    13     7     8   ar
    14     8     9    1



#	Name:			CHEMBL12948
#	Creating user name:	trannguyen
#	Creation time:		Wed Dec  7 14:36:25 2022


#	Modifying user name:	trannguyen
#	Modification time:	Wed Dec  7 14:36:25 2022

@<TRIPOS>MOLECULE
CHEMBL12948
 17 17 0 0 0
SMALL
GASTEIGER

@<TRIPOS>ATOM
      1 N           2.7600   31.6186    7.7468 N.am    1  UNL1       -0.2890
      2 C           1.9469   31.0793    8.7227 C.2     1  UNL1        0.3253
      3 O           0.7279   31.2227    8.7008 O.2     1  UNL1       -0.2507
      4 N           2.6000   30.3431    9.7169 N.am    1  UNL1       -0.1286
      5 H           3.7609   31.6015    7.8877 H       1  UNL1        0.1510
      6 C           3.5164   32.9942    3.1451 C.3     1  UNL1        0.0000
      7 C           4.1143   32.1631    4.2847 C.3     1  UNL1        0.0001
      8 C           4.4651   33.0285    5.5024 C.3     1  UNL1        0.0017
      9 C           3.2310   33.5363    6.2517 C.3     1  UNL1        0.0196
     10 C           2.2542   32.4144    6.6329 C.3     1  UNL1        0.0731
     11 C           1.9342   31.5037    5.4391 C.3     1  UNL1        0.0196
     12 C           3.1832   31.0174    4.6994 C.3     1  UNL1        0.0017
     13 N           3.9991   30.3264    9.7754 N.2     1  UNL1        0.0534
     14 O           4.5070   31.4166   10.0522 O.2     1  UNL1       -0.1256
     15 C           1.8113   29.6553   10.7419 C.3     1  UNL1        0.1414
     16 C           1.3311   28.2862   10.2788 C.3     1  UNL1        0.1186
     17 CL          2.7088   27.1734   10.0834 Cl      1  UNL1       -0.1118
@<TRIPOS>BOND
     1     6     7    1
     2     7     8    1
     3     7    12    1
     4     8     9    1
     5     9    10    1
     6    10     1    1
     7    10    11    1
     8     1     2   am
     9     1     5    1
    10     2     3    2
    11     2     4   am
    12     4    15    1
    13     4    13    1
    14    15    16    1
    15    16    17    1
    16    13    14    2
    17    11    12    1



#	Name:			CHEMBL13
#	Creating user name:	trannguyen
#	Creation time:		Wed Dec  7 14:36:25 2022


#	Modifying user name:	trannguyen
#	Modification time:	Wed Dec  7 14:36:25 2022

@<TRIPOS>MOLECULE
CHEMBL13
 21 21 0 0 0
SMALL
GASTEIGER

@<TRIPOS>ATOM
      1 O           5.3849   31.4399    3.1302 O.3     1  UNL1       -0.4728
      2 C           2.9748   31.7144    6.5324 C.ar    1  UNL1       -0.0195
      3 C           2.4899   31.1784    5.3264 C.ar    1  UNL1       -0.0011
      4 C           3.3103   31.1485    4.1930 C.ar    1  UNL1        0.0366
      5 C           4.6039   31.6522    4.2378 C.ar    1  UNL1        0.1387
      6 C           5.0328   32.3265    5.3881 C.ar    1  UNL1        0.0366
      7 C           4.2219   32.3402    6.5280 C.ar    1  UNL1       -0.0011
      8 C           2.1862   31.5862    7.8139 C.3     1  UNL1        0.0584
      9 C           3.0449   31.1171    8.9957 C.3     1  UNL1        0.1469
     10 C           1.6190   32.7015   10.0127 C.3     1  UNL1        0.1741
     11 O           2.4311   31.5507   10.2124 O.3     1  UNL1       -0.3507
     12 C           6.7394   31.9013    3.2520 C.3     1  UNL1        0.2358
     13 C           7.6141   31.4290    2.0806 C.3     1  UNL1        0.1697
     14 O           7.2706   30.0895    1.7073 O.3     1  UNL1       -0.3793
     15 H           6.5031   30.1797    1.1093 H       1  UNL1        0.2106
     16 C           7.6257   32.3305    0.8281 C.3     1  UNL1        0.1020
     17 N           7.5244   31.6469   -0.4751 N.3     1  UNL1       -0.2964
     18 H           6.5329   31.5119   -0.6986 H       1  UNL1        0.1233
     19 C           8.1632   32.4370   -1.5508 C.3     1  UNL1        0.0541
     20 C           7.3856   33.7190   -1.8717 C.3     1  UNL1        0.0171
     21 C           9.6009   32.8099   -1.1725 C.3     1  UNL1        0.0171
@<TRIPOS>BOND
     1    10    11    1
     2    11     9    1
     3     9     8    1
     4     8     2    1
     5     2     3   ar
     6     2     7   ar
     7     3     4   ar
     8     4     5   ar
     9     5     1    1
    10     5     6   ar
    11     1    12    1
    12    12    13    1
    13    13    14    1
    14    13    16    1
    15    14    15    1
    16    16    17    1
    17    17    19    1
    18    17    18    1
    19    19    20    1
    20    19    21    1
    21     6     7   ar



#	Name:			CHEMBL1308
#	Creating user name:	trannguyen
#	Creation time:		Wed Dec  7 14:36:25 2022


#	Modifying user name:	trannguyen
#	Modification time:	Wed Dec  7 14:36:25 2022

@<TRIPOS>MOLECULE
CHEMBL1308
 7 7 0 0 0
SMALL
GASTEIGER

@<TRIPOS>ATOM
      1 C           4.5549   28.4698    9.9893 C.3     1  UNL1        0.0343
      2 C           3.1473   28.5933   10.4265 C.ar    1  UNL1        0.0175
      3 C           2.3174   27.5974   10.9895 C.ar    1  UNL1        0.1171
      4 N           1.0934   28.0484   11.2738 N.ar    1  UNL1       -0.1714
      5 N           1.1342   29.3348   10.8939 N.ar    1  UNL1       -0.2746
      6 H           0.2998   29.8992   11.0159 H       1  UNL1        0.1890
      7 C           2.3402   29.7095   10.3790 C.ar    1  UNL1        0.0881
@<TRIPOS>BOND
     1     1     2    1
     2     2     3   ar
     3     2     7   ar
     4     3     4   ar
     5     4     5   ar
     6     5     6    1
     7     5     7   ar



#	Name:			CHEMBL133434
#	Creating user name:	trannguyen
#	Creation time:		Wed Dec  7 14:36:25 2022


#	Modifying user name:	trannguyen
#	Modification time:	Wed Dec  7 14:36:25 2022

@<TRIPOS>MOLECULE
CHEMBL133434
 34 37 0 0 0
SMALL
GASTEIGER

@<TRIPOS>ATOM
      1 C           7.5949   32.0948    9.5256 C.3     1  UNL1        0.0662
      2 C           6.7789   30.8001    9.7068 C.3     1  UNL1        0.0107
      3 C           5.3038   31.2042    9.5016 C.3     1  UNL1        0.0008
      4 C           5.2720   32.6380    8.8978 C.3     1  UNL1        0.0007
      5 C           6.7510   32.8373    8.4292 C.3     1  UNL1        0.0093
      6 C           6.9172   32.1619    7.0258 C.3     1  UNL1        0.0007
      7 C           7.2617   34.2910    8.3879 C.3     1  UNL1        0.0010
      8 C           8.7216   34.3566    7.9328 C.3     1  UNL1        0.0040
      9 C           9.6943   33.3487    8.6115 C.3     1  UNL1        0.0184
     10 C           9.0528   32.0147    9.0452 C.2     1  UNL1       -0.0429
     11 C           9.7602   30.8687    9.0351 C.2     1  UNL1       -0.0342
     12 C          11.2109   30.7587    8.6625 C.3     1  UNL1        0.0255
     13 C          11.9317   32.1219    8.5595 C.3     1  UNL1        0.0069
     14 C          13.4410   32.0205    8.1074 C.3     1  UNL1        0.0251
     15 C          14.2190   31.1669    9.1449 C.3     1  UNL1        0.0024
     16 C          13.6590   31.3418    6.7308 C.3     1  UNL1        0.0024
     17 C          14.0598   33.4507    8.0818 C.3     1  UNL1        0.1104
     18 O          14.1656   33.9541    9.4172 O.3     1  UNL1       -0.3845
     19 C          13.2356   34.4477    7.2637 C.3     1  UNL1        0.0292
     20 C          11.7902   34.5350    7.7523 C.3     1  UNL1        0.0028
     21 C          11.0520   33.1699    7.7903 C.3     1  UNL1        0.0039
     22 C          10.7718   32.7210    6.3319 C.3     1  UNL1        0.0003
     23 H          14.5851   34.8303    9.3693 H       1  UNL1        0.2103
     24 C           8.9462   33.2120   11.5309 C.3     1  UNL1        0.0726
     25 C           7.6068   32.7642   10.9582 C.2     1  UNL1        0.1537
     26 O           6.6106   32.8714   11.6565 O.2     1  UNL1       -0.2958
     27 C           4.1045   32.8045    7.8608 C.3     1  UNL1        0.0000
     28 C           3.1754   33.9826    8.1694 C.3     1  UNL1        0.0000
     29 C           3.2684   31.4946    7.7446 C.3     1  UNL1        0.0000
     30 C           2.1457   31.5633    6.6925 C.3     1  UNL1        0.0000
     31 C           2.5430   31.0620    5.2983 C.3     1  UNL1        0.0000
     32 C           2.7031   32.1527    4.2280 C.3     1  UNL1        0.0000
     33 C           1.7746   33.3329    4.5233 C.3     1  UNL1        0.0000
     34 C           4.1469   32.6431    4.1261 C.3     1  UNL1        0.0000
@<TRIPOS>BOND
     1    24    25    1
     2    25    26    2
     3     1     2    1
     4     1     5    1
     5     1    10    1
     6     1    25    1
     7     2     3    1
     8     3     4    1
     9     4     5    1
    10     4    27    1
    11    27    29    1
    12    27    28    1
    13    29    30    1
    14    30    31    1
    15    31    32    1
    16    32    33    1
    17    32    34    1
    18     5     7    1
    19     5     6    1
    20     7     8    1
    21     8     9    1
    22     9    10    1
    23     9    21    1
    24    10    11    2
    25    11    12    1
    26    12    13    1
    27    13    14    1
    28    13    21    1
    29    14    17    1
    30    14    15    1
    31    14    16    1
    32    17    19    1
    33    17    18    1
    34    18    23    1
    35    19    20    1
    36    20    21    1
    37    21    22    1



#	Name:			CHEMBL133834
#	Creating user name:	trannguyen
#	Creation time:		Wed Dec  7 14:36:25 2022


#	Modifying user name:	trannguyen
#	Modification time:	Wed Dec  7 14:36:25 2022

@<TRIPOS>MOLECULE
CHEMBL133834
 35 38 0 0 0
SMALL
GASTEIGER

@<TRIPOS>ATOM
      1 C           5.0084   32.4320    3.5766 C.3     1  UNL1        0.0004
      2 C           5.0811   33.9649    3.6273 C.3     1  UNL1        0.0004
      3 C           6.3815   34.2763    4.3455 C.3     1  UNL1        0.0061
      4 C           7.4111   33.2637    3.7669 C.3     1  UNL1        0.0395
      5 C           7.7920   33.7295    2.3212 C.2     1  UNL1       -0.0471
      6 C           8.2801   34.9496    2.0721 C.2     1  UNL1       -0.0346
      7 C           8.6269   35.5086    0.7242 C.3     1  UNL1        0.0255
      8 C           7.9847   34.7096   -0.4183 C.3     1  UNL1        0.0069
      9 C           8.2726   35.3016   -1.8504 C.3     1  UNL1        0.0251
     10 C           9.7685   35.4832   -2.1889 C.3     1  UNL1        0.0024
     11 C           7.6507   36.7248   -1.9355 C.3     1  UNL1        0.0024
     12 C           7.5711   34.4016   -2.9072 C.3     1  UNL1        0.1104
     13 O           7.9197   34.7781   -4.2380 O.3     1  UNL1       -0.3845
     14 C           7.9082   32.9212   -2.7501 C.3     1  UNL1        0.0292
     15 C           7.5381   32.3995   -1.3678 C.3     1  UNL1        0.0028
     16 C           8.2186   33.1714   -0.2065 C.3     1  UNL1        0.0039
     17 C           9.7156   32.7791   -0.1468 C.3     1  UNL1        0.0003
     18 C           7.5111   32.7701    1.1620 C.3     1  UNL1        0.0180
     19 C           7.8172   31.3415    1.6026 C.3     1  UNL1        0.0040
     20 C           6.8794   30.8651    2.6998 C.3     1  UNL1        0.0007
     21 C           6.5183   31.9133    3.8000 C.3     1  UNL1        0.0053
     22 C           6.6963   31.1377    5.1245 C.3     1  UNL1        0.0004
     23 H           7.5118   35.6405   -4.4215 H       1  UNL1        0.2103
     24 C           8.6780   33.2043    4.7164 C.3     1  UNL1        0.1139
     25 C           9.0756   34.4675    5.4831 C.3     1  UNL1        0.0320
     26 O           9.8310   32.7426    4.0101 O.3     1  UNL1       -0.3842
     27 H          10.1377   33.4798    3.4539 H       1  UNL1        0.2103
     28 C           3.8115   31.8330    4.4170 C.3     1  UNL1        0.0000
     29 C           2.6146   31.5217    3.4868 C.3     1  UNL1        0.0000
     30 C           3.3035   32.7016    5.6033 C.3     1  UNL1        0.0000
     31 C           3.5360   32.1117    7.0129 C.3     1  UNL1        0.0000
     32 C           2.3148   31.2926    7.4853 C.3     1  UNL1        0.0000
     33 C           1.2456   29.8130    9.2411 C.3     1  UNL1        0.0000
     34 C           2.3499   30.8450    8.9662 C.3     1  UNL1        0.0000
     35 C           3.7044   30.2789    9.3949 C.3     1  UNL1        0.0000
@<TRIPOS>BOND
     1    33    34    1
     2    34    35    1
     3    34    32    1
     4    32    31    1
     5    31    30    1
     6    30    28    1
     7    28    29    1
     8    28     1    1
     9     1     2    1
    10     1    21    1
    11     2     3    1
    12     4     3    1
    13     4     5    1
    14     4    21    1
    15     4    24    1
    16    24    25    1
    17    24    26    1
    18    26    27    1
    19     5     6    2
    20     5    18    1
    21     6     7    1
    22     7     8    1
    23     8     9    1
    24     8    16    1
    25     9    12    1
    26     9    10    1
    27     9    11    1
    28    12    14    1
    29    12    13    1
    30    13    23    1
    31    14    15    1
    32    15    16    1
    33    16    18    1
    34    16    17    1
    35    18    19    1
    36    19    20    1
    37    20    21    1
    38    21    22    1



#	Name:			CHEMBL134
#	Creating user name:	trannguyen
#	Creation time:		Wed Dec  7 14:36:25 2022


#	Modifying user name:	trannguyen
#	Modification time:	Wed Dec  7 14:36:25 2022

@<TRIPOS>MOLECULE
CHEMBL134
 16 17 0 0 0
SMALL
GASTEIGER

@<TRIPOS>ATOM
      1 CL          5.7011   30.4740    9.7089 Cl      1  UNL1       -0.0792
      2 C           4.0907   29.8406    9.7696 C.ar    1  UNL1        0.0927
      3 C           3.9385   28.5009   10.1480 C.ar    1  UNL1        0.0144
      4 C           2.6692   27.9307   10.2099 C.ar    1  UNL1        0.0019
      5 C           1.5514   28.7006    9.8956 C.ar    1  UNL1        0.0144
      6 C           1.7029   30.0404    9.5171 C.ar    1  UNL1        0.0927
      7 CL          0.2657   30.9339    9.1493 Cl      1  UNL1       -0.0792
      8 C           2.9765   30.6339    9.4367 C.ar    1  UNL1        0.1792
      9 N           3.1221   31.9919    9.0785 N.2     1  UNL1       -0.0739
     10 C           3.1911   32.2850    7.8279 C.cat   1  UNL1        0.3717
     11 N           3.1725   31.4795    6.7143 N.pl3   1  UNL1       -0.2218
     12 C           3.4532   32.2300    5.5000 C.3     1  UNL1        0.2040
     13 C           3.1277   33.6662    5.9375 C.3     1  UNL1        0.2040
     14 N           3.3002   33.5705    7.3716 N.pl3   1  UNL1       -0.2218
     15 H           3.5479   30.5467    6.8108 H       1  UNL1        0.2454
     16 H           2.9691   34.2963    7.9925 H       1  UNL1        0.2454
@<TRIPOS>BOND
     1     1     2    1
     2     2     3   ar
     3     2     8   ar
     4     3     4   ar
     5     4     5   ar
     6     5     6   ar
     7     6     7    1
     8     6     8   ar
     9     8     9    1
    10     9    10    2
    11    10    11    1
    12    10    14    1
    13    11    12    1
    14    11    15    1
    15    12    13    1
    16    13    14    1
    17    14    16    1



#	Name:			CHEMBL134342
#	Creating user name:	trannguyen
#	Creation time:		Wed Dec  7 14:36:25 2022


#	Modifying user name:	trannguyen
#	Modification time:	Wed Dec  7 14:36:25 2022

@<TRIPOS>MOLECULE
CHEMBL134342
 13 13 0 0 0
SMALL
GASTEIGER

@<TRIPOS>ATOM
      1 C           1.2851   30.6845    8.4227 C.3     1  UNL1        0.0015
      2 C           1.8310   30.3956    9.8285 C.3     1  UNL1        0.0117
      3 C           2.1531   28.9110   10.0211 C.3     1  UNL1        0.1094
      4 O           1.9464   27.9570   12.2453 O.2     1  UNL1       -0.2503
      5 C           1.4197   28.3159   11.2074 C.2     1  UNL1        0.3138
      6 O           0.0916   28.1662   10.9844 O.3     1  UNL1       -0.4802
      7 H          -0.2108   28.4815   10.1125 H       1  UNL1        0.2951
      8 C           2.4169   30.9818    7.4237 C.3     1  UNL1        0.0117
      9 C           2.1005   32.1176    6.4286 C.3     1  UNL1        0.0588
     10 C           1.8981   31.6163    4.9882 C.3     1  UNL1        0.0242
     11 C           3.2153   31.1295    4.3879 C.3     1  UNL1        0.0696
     12 S           4.4816   32.3666    4.7762 S.3     1  UNL1       -0.0821
     13 S           3.4659   33.3178    6.2832 S.3     1  UNL1       -0.0830
@<TRIPOS>BOND
     1     4     5    2
     2     5     6    1
     3     5     3    1
     4     6     7    1
     5     3     2    1
     6     2     1    1
     7     1     8    1
     8     9    10    1
     9     9    13    1
    10     9     8    1
    11    10    11    1
    12    11    12    1
    13    12    13    1



#	Name:			CHEMBL1349
#	Creating user name:	trannguyen
#	Creation time:		Wed Dec  7 14:36:25 2022


#	Modifying user name:	trannguyen
#	Modification time:	Wed Dec  7 14:36:25 2022

@<TRIPOS>MOLECULE
CHEMBL1349
 28 29 0 0 0
SMALL
GASTEIGER

@<TRIPOS>ATOM
      1 C           1.4148   31.7025    7.8685 C.3     1  UNL1        0.2582
      2 N           1.2516   30.5471    8.7304 N.ar    1  UNL1       -0.2693
      3 C           0.0455   30.0083    9.1143 C.ar    1  UNL1        0.1817
      4 N           0.1938   29.0215    9.9810 N.ar    1  UNL1       -0.2174
      5 C           1.5557   28.9340   10.1855 C.ar    1  UNL1        0.1729
      6 C           2.3421   28.0948   11.1071 C.ar    1  UNL1        0.3022
      7 O           1.8412   27.2166   11.7824 O.2     1  UNL1       -0.2633
      8 N           3.7141   28.4062   11.1660 N.ar    1  UNL1       -0.1756
      9 C           4.2143   29.3009   10.3678 C.ar    1  UNL1        0.1952
     10 N           5.5254   29.6432   10.4440 N.pl3   1  UNL1       -0.3289
     11 N           3.5274   30.0124    9.4225 N.ar    1  UNL1       -0.3121
     12 H           3.9735   30.7822    8.9335 H       1  UNL1        0.1700
     13 C           2.1981   29.8463    9.4017 C.ar    1  UNL1        0.1492
     14 H           6.0184   29.0225   11.0806 H       1  UNL1        0.1451
     15 H           5.9959   29.6966    9.5500 H       1  UNL1        0.1451
     16 O           2.3663   31.3993    6.8443 O.3     1  UNL1       -0.3281
     17 C           2.9752   32.5822    6.3285 C.3     1  UNL1        0.1917
     18 C           4.3448   32.7691    6.9864 C.3     1  UNL1        0.2404
     19 O           4.3485   33.7830    8.0062 O.3     1  UNL1       -0.4448
     20 C           4.9555   33.4266    9.1777 C.2     1  UNL1        0.3312
     21 O           4.4408   32.6839   10.0027 O.2     1  UNL1       -0.2486
     22 C           6.3663   34.0518    9.2847 C.3     1  UNL1        0.1511
     23 N           6.2417   35.4850    9.6573 N.3     1  UNL1       -0.3134
     24 H           5.5851   35.9192    9.0049 H       1  UNL1        0.1193
     25 H           7.1336   35.9606    9.5411 H       1  UNL1        0.1193
     26 C           8.2582   34.2435   11.0128 C.3     1  UNL1        0.0019
     27 C           7.2742   33.3062   10.2967 C.3     1  UNL1        0.0251
     28 C           8.0541   32.1507    9.6587 C.3     1  UNL1        0.0019
@<TRIPOS>BOND
     1    26    27    1
     2    27    28    1
     3    22    23    1
     4    22    20    1
     5    22    27    1
     6    23    24    1
     7    23    25    1
     8    20    21    2
     9    20    19    1
    10    19    18    1
    11    18    17    1
    12    17    16    1
    13    16     1    1
    14     1     2    1
    15     2     3   ar
    16     2    13   ar
    17     3     4   ar
    18     4     5   ar
    19     5     6   ar
    20     5    13   ar
    21     6     7    2
    22     6     8   ar
    23     8     9   ar
    24     9    10    1
    25     9    11   ar
    26    10    14    1
    27    10    15    1
    28    11    12    1
    29    11    13   ar



#	Name:			CHEMBL135
#	Creating user name:	trannguyen
#	Creation time:		Wed Dec  7 14:36:25 2022


#	Modifying user name:	trannguyen
#	Modification time:	Wed Dec  7 14:36:25 2022

@<TRIPOS>MOLECULE
CHEMBL135
 22 25 0 0 0
SMALL
GASTEIGER

@<TRIPOS>ATOM
      1 C           8.2841   32.2961    7.6561 C.3     1  UNL1        0.0024
      2 C           7.4382   32.4212    8.9312 C.3     1  UNL1        0.0248
      3 C           6.1560   33.2804    8.5524 C.3     1  UNL1        0.0027
      4 C           4.6977   32.6572    8.7801 C.3     1  UNL1        0.0044
      5 C           4.5312   31.0985    8.6797 C.3     1  UNL1        0.0220
      6 C           3.2081   30.4595    9.1723 C.ar    1  UNL1       -0.0263
      7 C           1.9577   30.9762    8.8261 C.ar    1  UNL1       -0.0015
      8 C           0.7453   30.3689    9.2427 C.ar    1  UNL1        0.0363
      9 C           0.8025   29.2225   10.0445 C.ar    1  UNL1        0.1333
     10 O          -0.3323   28.6017   10.5072 O.3     1  UNL1       -0.5055
     11 C           1.9939   28.6677   10.3605 C.ar    1  UNL1        0.0320
     12 C           3.2011   29.2335    9.9001 C.ar    1  UNL1       -0.0231
     13 C           4.4318   28.4320   10.1362 C.3     1  UNL1        0.0261
     14 C           5.5822   29.3540   10.3447 C.3     1  UNL1        0.0050
     15 C           5.7879   30.3841    9.2270 C.3     1  UNL1        0.0044
     16 C           6.8810   31.2797    9.7758 C.3     1  UNL1        0.0027
     17 C           6.5664   32.0551   11.1338 C.3     1  UNL1        0.0026
     18 C           7.7148   33.0484   11.3059 C.3     1  UNL1        0.0292
     19 C           8.5065   32.7638   10.0602 C.3     1  UNL1        0.1104
     20 O           9.5736   33.6312    9.7796 O.3     1  UNL1       -0.3845
     21 H          -1.1048   29.0929   10.2223 H       1  UNL1        0.2922
     22 H          10.3376   33.0393    9.6043 H       1  UNL1        0.2103
@<TRIPOS>BOND
     1     2     3    1
     2     2    16    1
     3     2    19    1
     4     2     1    1
     5     3     4    1
     6     4     5    1
     7     5     6    1
     8     5    15    1
     9     6     7   ar
    10     6    12   ar
    11     7     8   ar
    12     8     9   ar
    13     9    11   ar
    14     9    10    1
    15    10    21    1
    16    11    12   ar
    17    12    13    1
    18    13    14    1
    19    14    15    1
    20    15    16    1
    21    16    17    1
    22    17    18    1
    23    18    19    1
    24    19    20    1
    25    20    22    1



#	Name:			CHEMBL1365675
#	Creating user name:	trannguyen
#	Creation time:		Wed Dec  7 14:36:25 2022


#	Modifying user name:	trannguyen
#	Modification time:	Wed Dec  7 14:36:25 2022

@<TRIPOS>MOLECULE
CHEMBL1365675
 22 23 0 0 0
SMALL
GASTEIGER

@<TRIPOS>ATOM
      1 N           6.0356   32.8954    8.4701 N.pl3   1  UNL1       -0.2516
      2 C           6.8040   33.5119    9.5504 C.3     1  UNL1        0.1203
      3 N           5.8827   33.3148    6.1030 N.2     1  UNL1       -0.2278
      4 C           6.5231   33.0077    7.1727 C.2     1  UNL1        0.1687
      5 C           8.4213   33.4414    0.9497 C.3     1  UNL1        0.0310
      6 C           7.8109   33.3631    2.3172 C.ar    1  UNL1       -0.0221
      7 C           8.3070   34.1357    3.3663 C.ar    1  UNL1       -0.0027
      8 C           7.6836   34.1121    4.6174 C.ar    1  UNL1        0.0185
      9 C           6.5627   33.3036    4.8606 C.ar    1  UNL1        0.0788
     10 C           6.0751   32.5021    3.8100 C.ar    1  UNL1       -0.0045
     11 C           4.8587   31.6321    3.9792 C.3     1  UNL1        0.0326
     12 C           6.6925   32.5538    2.5455 C.ar    1  UNL1       -0.0070
     13 C           4.8942   32.1994    8.8331 C.2     1  UNL1        0.1687
     14 N           4.7536   30.9231    8.9980 N.2     1  UNL1       -0.2278
     15 C           3.4731   30.4220    9.3225 C.ar    1  UNL1        0.0788
     16 C           2.3112   31.1713    9.0732 C.ar    1  UNL1        0.0185
     17 C           1.0410   30.6612    9.3392 C.ar    1  UNL1       -0.0027
     18 C           0.8957   29.3693    9.8396 C.ar    1  UNL1       -0.0221
     19 C          -0.4689   28.7970   10.0767 C.3     1  UNL1        0.0310
     20 C           2.0413   28.5966   10.0621 C.ar    1  UNL1       -0.0070
     21 C           3.3298   29.1149    9.8266 C.ar    1  UNL1       -0.0045
     22 C           4.5251   28.2510   10.1243 C.3     1  UNL1        0.0326
@<TRIPOS>BOND
     1     5     6    1
     2     6     7   ar
     3     6    12   ar
     4     7     8   ar
     5     8     9   ar
     6     9     3    1
     7     9    10   ar
     8     3     4    2
     9     4     1    1
    10     1     2    1
    11     1    13    1
    12    13    14    2
    13    14    15    1
    14    15    16   ar
    15    15    21   ar
    16    16    17   ar
    17    17    18   ar
    18    18    19    1
    19    18    20   ar
    20    20    21   ar
    21    21    22    1
    22    10    11    1
    23    10    12   ar



#	Name:			CHEMBL1370
#	Creating user name:	trannguyen
#	Creation time:		Wed Dec  7 14:36:25 2022


#	Modifying user name:	trannguyen
#	Modification time:	Wed Dec  7 14:36:25 2022

@<TRIPOS>MOLECULE
CHEMBL1370
 33 37 0 0 0
SMALL
GASTEIGER

@<TRIPOS>ATOM
      1 C           2.2219   33.3254   10.2225 C.3     1  UNL1        0.2354
      2 O           2.7879   34.5902    9.9031 O.3     1  UNL1       -0.3301
      3 C           4.0155   34.2832    9.2533 C.3     1  UNL1        0.1493
      4 C           5.1403   34.0763   10.2609 C.3     1  UNL1        0.0326
      5 C           6.1151   33.1253    9.5473 C.3     1  UNL1        0.0054
      6 C           7.1052   33.9109    8.6414 C.3     1  UNL1        0.0034
      7 C           8.1239   34.7243    9.4696 C.3     1  UNL1        0.0045
      8 C           9.2521   33.8723   10.0321 C.3     1  UNL1        0.0224
      9 C           9.9586   33.2011    8.8878 C.2     1  UNL1       -0.0378
     10 C          11.2413   33.5094    8.6276 C.2     1  UNL1        0.0338
     11 C          11.9579   32.9637    7.4571 C.2     1  UNL1        0.1948
     12 O          13.1196   33.2549    7.2276 O.2     1  UNL1       -0.2866
     13 C          11.1986   32.0627    6.5734 C.2     1  UNL1        0.0377
     14 C           9.9218   31.7508    6.8357 C.2     1  UNL1       -0.0197
     15 C           9.1045   32.2507    8.0296 C.3     1  UNL1        0.0361
     16 C           8.8133   30.9874    8.8620 C.3     1  UNL1        0.0085
     17 C           7.8202   33.0564    7.5501 C.3     1  UNL1        0.0341
     18 C           6.7121   32.3387    6.7490 C.3     1  UNL1        0.1111
     19 O           7.2270   31.5461    5.6896 O.3     1  UNL1       -0.3844
     20 C           5.7943   31.4595    7.5887 C.3     1  UNL1        0.0320
     21 C           5.1536   32.1140    8.8322 C.3     1  UNL1        0.0341
     22 C           4.8619   30.9416    9.8167 C.3     1  UNL1        0.0029
     23 C           3.8156   32.9259    8.5841 C.3     1  UNL1        0.1729
     24 O           2.7031   32.3493    9.2967 O.3     1  UNL1       -0.3257
     25 H           7.5796   32.1556    5.0161 H       1  UNL1        0.2103
     26 C           3.3648   33.0977    7.1234 C.2     1  UNL1        0.2065
     27 O           3.6998   34.0718    6.4427 O.2     1  UNL1       -0.2909
     28 C           2.4719   31.9964    6.5369 C.3     1  UNL1        0.2045
     29 O           1.1107   32.1120    6.9219 O.3     1  UNL1       -0.3749
     30 H           1.1061   32.2905    7.8807 H       1  UNL1        0.2110
     31 C           0.6999   33.4013   10.1976 C.3     1  UNL1        0.0614
     32 C          -1.1234   34.7381   11.3230 C.3     1  UNL1        0.0002
     33 C           0.1968   34.7958   10.5729 C.3     1  UNL1        0.0052
@<TRIPOS>BOND
     1    32    33    1
     2    33    31    1
     3    31     1    1
     4     1     2    1
     5     1    24    1
     6     2     3    1
     7     3     4    1
     8     3    23    1
     9     4     5    1
    10     5     6    1
    11     5    21    1
    12     6     7    1
    13     6    17    1
    14     7     8    1
    15     8     9    1
    16     9    10    2
    17     9    15    1
    18    10    11    1
    19    11    13    1
    20    11    12    2
    21    13    14    2
    22    14    15    1
    23    15    17    1
    24    15    16    1
    25    17    18    1
    26    18    20    1
    27    18    19    1
    28    19    25    1
    29    20    21    1
    30    21    23    1
    31    21    22    1
    32    23    24    1
    33    23    26    1
    34    26    27    2
    35    26    28    1
    36    28    29    1
    37    29    30    1



#	Name:			CHEMBL1370561
#	Creating user name:	trannguyen
#	Creation time:		Wed Dec  7 14:36:25 2022


#	Modifying user name:	trannguyen
#	Modification time:	Wed Dec  7 14:36:25 2022

@<TRIPOS>MOLECULE
CHEMBL1370561
 14 15 0 0 0
SMALL
GASTEIGER

@<TRIPOS>ATOM
      1 C           2.1004   32.1032    7.4252 C.3     1  UNL1        0.1383
      2 N           2.2881   31.0794    8.4321 N.ar    1  UNL1       -0.2455
      3 C           1.1505   30.4849    8.9820 C.ar    1  UNL1        0.2830
      4 O          -0.0063   30.7690    8.6863 O.2     1  UNL1       -0.2652
      5 C           1.4626   29.5180    9.9697 C.ar    1  UNL1        0.1494
      6 N           0.6519   28.7334   10.7365 N.ar    1  UNL1       -0.3300
      7 H          -0.3594   28.7149   10.7206 H       1  UNL1        0.1677
      8 C           1.4726   28.0129   11.5654 C.ar    1  UNL1        0.1767
      9 N           2.7440   28.2959   11.3601 N.ar    1  UNL1       -0.2065
     10 C           2.7291   29.2322   10.3717 C.ar    1  UNL1        0.1694
     11 N           3.8160   29.8742    9.8317 N.ar    1  UNL1       -0.2628
     12 C           5.1511   29.6199   10.3368 C.3     1  UNL1        0.1366
     13 C           3.6142   30.8599    8.8620 C.ar    1  UNL1        0.3350
     14 O           4.5520   31.5164    8.3987 O.2     1  UNL1       -0.2461
@<TRIPOS>BOND
     1     1     2    1
     2     2     3   ar
     3     2    13   ar
     4     3     4    2
     5     3     5   ar
     6     5     6   ar
     7     5    10   ar
     8     6     7    1
     9     6     8   ar
    10     8     9   ar
    11     9    10   ar
    12    10    11   ar
    13    11    12    1
    14    11    13   ar
    15    13    14    2



#	Name:			CHEMBL1371
#	Creating user name:	trannguyen
#	Creation time:		Wed Dec  7 14:36:25 2022


#	Modifying user name:	trannguyen
#	Modification time:	Wed Dec  7 14:36:25 2022

@<TRIPOS>MOLECULE
CHEMBL1371
 12 13 0 0 0
SMALL
GASTEIGER

@<TRIPOS>ATOM
      1 O           2.1636   26.8118   11.8182 O.2     1  UNL1       -0.2229
      2 C           2.1299   27.7933   11.0912 C.ar    1  UNL1        0.4187
      3 N           3.2362   28.4766   10.6427 N.ar    1  UNL1       -0.2874
      4 H           4.1821   28.2242   10.8775 H       1  UNL1        0.1721
      5 C           2.8020   29.5057    9.8589 C.ar    1  UNL1        0.0972
      6 C           3.5044   30.4717    9.1787 C.ar    1  UNL1        0.0316
      7 C           2.7445   31.3936    8.4555 C.ar    1  UNL1        0.0593
      8 CL          3.5433   32.6358    7.5697 Cl      1  UNL1       -0.0822
      9 C           1.3357   31.3275    8.4342 C.ar    1  UNL1        0.0146
     10 C           0.6581   30.3269    9.1415 C.ar    1  UNL1        0.0400
     11 C           1.4244   29.4255    9.8478 C.ar    1  UNL1        0.1658
     12 O           0.9474   28.3684   10.6054 O.2     1  UNL1       -0.4069
@<TRIPOS>BOND
     1     1     2    2
     2     2     3   ar
     3     2    12   ar
     4     3     4    1
     5     3     5   ar
     6     5     6   ar
     7     5    11   ar
     8     6     7   ar
     9     7     8    1
    10     7     9   ar
    11     9    10   ar
    12    10    11   ar
    13    11    12   ar



#	Name:			CHEMBL1371125
#	Creating user name:	trannguyen
#	Creation time:		Wed Dec  7 14:36:25 2022


#	Modifying user name:	trannguyen
#	Modification time:	Wed Dec  7 14:36:25 2022

@<TRIPOS>MOLECULE
CHEMBL1371125
 20 24 0 0 0
SMALL
GASTEIGER

@<TRIPOS>ATOM
      1 C           3.0852   33.6593    3.8617 C.ar    1  UNL1        0.0000
      2 C           1.8690   33.1396    4.2486 C.ar    1  UNL1        0.0000
      3 C           1.7865   32.4007    5.4282 C.ar    1  UNL1        0.0000
      4 C           2.9078   32.1499    6.2673 C.ar    1  UNL1        0.0000
      5 C           4.1641   32.6854    5.8662 C.ar    1  UNL1        0.0000
      6 C           4.2073   33.4340    4.6575 C.ar    1  UNL1        0.0000
      7 C           5.3292   32.4611    6.6739 C.ar    1  UNL1        0.0000
      8 C           6.6199   32.9557    6.3490 C.ar    1  UNL1        0.0000
      9 C           7.7385   32.7260    7.1490 C.ar    1  UNL1        0.0000
     10 C           7.6089   31.9877    8.3125 C.ar    1  UNL1        0.0000
     11 C           6.3640   31.4752    8.6823 C.ar    1  UNL1        0.0000
     12 C           6.2545   30.7323    9.8594 C.ar    1  UNL1        0.0000
     13 C           5.0284   30.2096   10.2519 C.ar    1  UNL1        0.0000
     14 C           3.8870   30.4202    9.4751 C.ar    1  UNL1        0.0000
     15 C           2.6684   29.8835    9.8943 C.ar    1  UNL1        0.0000
     16 C           1.5256   30.0822    9.1389 C.ar    1  UNL1        0.0000
     17 C           1.5977   30.8196    7.9575 C.ar    1  UNL1        0.0000
     18 C           2.8083   31.3881    7.4803 C.ar    1  UNL1        0.0000
     19 C           3.9668   31.1745    8.2686 C.ar    1  UNL1        0.0000
     20 C           5.2173   31.7069    7.8685 C.ar    1  UNL1        0.0000
@<TRIPOS>BOND
     1     1     2   ar
     2     1     6   ar
     3     2     3   ar
     4     3     4   ar
     5     4     5   ar
     6     4    18   ar
     7     5     6   ar
     8     5     7   ar
     9     7     8   ar
    10     7    20   ar
    11     8     9   ar
    12     9    10   ar
    13    10    11   ar
    14    11    12   ar
    15    11    20   ar
    16    12    13   ar
    17    13    14   ar
    18    14    15   ar
    19    14    19   ar
    20    15    16   ar
    21    16    17   ar
    22    17    18   ar
    23    18    19   ar
    24    19    20   ar



#	Name:			CHEMBL1373
#	Creating user name:	trannguyen
#	Creation time:		Wed Dec  7 14:36:25 2022


#	Modifying user name:	trannguyen
#	Modification time:	Wed Dec  7 14:36:25 2022

@<TRIPOS>MOLECULE
CHEMBL1373
 21 22 0 0 0
SMALL
GASTEIGER

@<TRIPOS>ATOM
      1 C           2.9350   31.5930    9.3640 C.3     1  UNL1        0.1115
      2 C           2.8213   30.1283    9.8369 C.ar    1  UNL1       -0.0069
      3 C           3.9004   29.2263    9.8100 C.ar    1  UNL1       -0.0031
      4 C           3.7561   27.8954   10.2126 C.ar    1  UNL1       -0.0003
      5 C           2.5320   27.4375   10.6817 C.ar    1  UNL1       -0.0000
      6 C           1.4526   28.3140   10.7493 C.ar    1  UNL1       -0.0003
      7 C           1.5940   29.6456   10.3332 C.ar    1  UNL1       -0.0031
      8 C           3.0262   31.7299    7.8461 C.ar    1  UNL1       -0.0069
      9 C           4.1667   32.3118    7.2567 C.ar    1  UNL1       -0.0031
     10 C           4.2897   32.4091    5.8666 C.ar    1  UNL1       -0.0003
     11 C           3.2744   31.9324    5.0425 C.ar    1  UNL1       -0.0000
     12 C           2.1357   31.3633    5.6079 C.ar    1  UNL1       -0.0003
     13 C           2.0141   31.2577    6.9973 C.ar    1  UNL1       -0.0031
     14 S           1.6831   32.7091   10.1788 S.3     1  UNL1       -0.0070
     15 O           0.2801   32.5662    9.4779 O.3     1  UNL1       -0.1597
     16 C           2.3156   34.3391    9.7315 C.3     1  UNL1        0.1631
     17 N           4.5948   35.1700    9.6310 N.am    1  UNL1       -0.3280
     18 C           3.5774   34.7331   10.4402 C.2     1  UNL1        0.2320
     19 O           3.7491   34.6790   11.6542 O.2     1  UNL1       -0.2743
     20 H           5.4446   35.4711   10.0833 H       1  UNL1        0.1450
     21 H           4.4607   35.3949    8.6567 H       1  UNL1        0.1450
@<TRIPOS>BOND
     1    17    18   am
     2    17    20    1
     3    17    21    1
     4    18    19    2
     5    18    16    1
     6    16    14    1
     7    14    15    1
     8    14     1    1
     9     1     2    1
    10     1     8    1
    11     2     3   ar
    12     2     7   ar
    13     3     4   ar
    14     4     5   ar
    15     5     6   ar
    16     6     7   ar
    17     8     9   ar
    18     8    13   ar
    19     9    10   ar
    20    10    11   ar
    21    11    12   ar
    22    12    13   ar



#	Name:			CHEMBL1381098
#	Creating user name:	trannguyen
#	Creation time:		Wed Dec  7 14:36:25 2022


#	Modifying user name:	trannguyen
#	Modification time:	Wed Dec  7 14:36:25 2022

@<TRIPOS>MOLECULE
CHEMBL1381098
 13 14 0 0 0
SMALL
GASTEIGER

@<TRIPOS>ATOM
      1 C           3.1795   31.2013    8.6899 C.ar    1  UNL1        0.0909
      2 C           4.5731   31.3785    8.7110 C.ar    1  UNL1        0.0199
      3 C           5.3850   30.5556    9.4852 C.ar    1  UNL1        0.0016
      4 C           4.8147   29.5322   10.2383 C.ar    1  UNL1        0.0001
      5 C           3.4297   29.3074   10.2180 C.ar    1  UNL1        0.0015
      6 C           2.8677   28.2612   10.9682 C.ar    1  UNL1        0.0000
      7 C           1.4944   28.0196   10.9461 C.ar    1  UNL1        0.0000
      8 C           0.6644   28.8189   10.1703 C.ar    1  UNL1        0.0000
      9 C           1.2073   29.8639    9.4203 C.ar    1  UNL1        0.0015
     10 C           2.5934   30.1379    9.4305 C.ar    1  UNL1        0.0184
     11 S           2.5132   31.4180    5.1891 S.2     1  UNL1        0.0207
     12 C           2.4612   31.7713    6.7420 C.1     1  UNL1        0.0415
     13 N           2.4002   32.0601    7.8803 N.2     1  UNL1       -0.1961
@<TRIPOS>BOND
     1    11    12    2
     2    12    13    2
     3    13     1    1
     4     1     2   ar
     5     1    10   ar
     6     2     3   ar
     7     3     4   ar
     8     4     5   ar
     9     5     6   ar
    10     5    10   ar
    11     6     7   ar
    12     7     8   ar
    13     8     9   ar
    14     9    10   ar



#	Name:			CHEMBL1385840
#	Creating user name:	trannguyen
#	Creation time:		Wed Dec  7 14:36:25 2022


#	Modifying user name:	trannguyen
#	Modification time:	Wed Dec  7 14:36:25 2022

@<TRIPOS>MOLECULE
CHEMBL1385840
 44 50 0 0 0
SMALL
GASTEIGER

@<TRIPOS>ATOM
      1 C           2.1520   31.0878    8.8240 C.3     1  UNL1        0.1560
      2 C           1.0705   32.0300    9.4237 C.2     1  UNL1        0.2440
      3 O          -0.0627   31.6423    9.6975 O.2     1  UNL1       -0.2731
      4 N           1.5026   33.3023    9.7288 N.am    1  UNL1       -0.2734
      5 C           0.6577   34.3526   10.2603 C.3     1  UNL1        0.0937
      6 C           1.6412   35.4345   10.6975 C.3     1  UNL1        0.0234
      7 C           2.8380   35.2214    9.7680 C.3     1  UNL1        0.0285
      8 C           2.9017   33.6954    9.6696 C.3     1  UNL1        0.1465
      9 C           3.6617   33.1022    8.4566 C.3     1  UNL1        0.2754
     10 O           5.0412   32.9537    8.7462 O.3     1  UNL1       -0.3478
     11 O           3.5581   33.9328    7.3152 O.3     1  UNL1       -0.2976
     12 C           3.6159   33.1167    6.1125 C.3     1  UNL1        0.2253
     13 C           3.1750   31.7484    6.6762 C.2     1  UNL1        0.2719
     14 O           2.8239   30.7642    6.0389 O.2     1  UNL1       -0.2704
     15 N           3.1849   31.8206    8.0627 N.am    1  UNL1       -0.2271
     16 H           5.2969   33.7103    9.2969 H       1  UNL1        0.2145
     17 N           4.9978   33.2282    5.6966 N.am    1  UNL1       -0.2787
     18 C           5.6125   32.4369    4.7564 C.2     1  UNL1        0.2293
     19 O           5.0439   31.5364    4.1524 O.2     1  UNL1       -0.2746
     20 H           5.5786   33.7464    6.3386 H       1  UNL1        0.1519
     21 C           7.1066   32.7395    4.5732 C.3     1  UNL1        0.1141
     22 C           7.9379   32.0387    5.6309 C.2     1  UNL1       -0.0190
     23 C           8.7054   32.7130    6.5148 C.2     1  UNL1       -0.0112
     24 C           9.5359   32.0236    7.5302 C.ar    1  UNL1       -0.0019
     25 C           9.6425   30.6457    7.7753 C.ar    1  UNL1       -0.0002
     26 C          10.4861   30.1503    8.7803 C.ar    1  UNL1        0.0015
     27 C          11.2479   31.0041    9.5881 C.ar    1  UNL1        0.0170
     28 C          11.1332   32.3723    9.3390 C.ar    1  UNL1        0.0563
     29 N          11.7270   33.4628    9.9362 N.ar    1  UNL1       -0.3523
     30 H          12.3764   33.4115   10.7084 H       1  UNL1        0.1660
     31 C          11.3257   34.6226    9.3163 C.ar    1  UNL1        0.0681
     32 C          10.4561   34.2733    8.3083 C.ar    1  UNL1       -0.0021
     33 C          10.3124   32.8696    8.3364 C.ar    1  UNL1        0.0128
     34 C           9.7656   35.0871    7.2799 C.3     1  UNL1        0.0484
     35 C           8.6899   34.2660    6.4838 C.3     1  UNL1        0.0843
     36 N           8.5282   34.8006    5.0949 N.3     1  UNL1       -0.2681
     37 C           9.6665   34.4858    4.2260 C.3     1  UNL1        0.0899
     38 C           7.2660   34.2771    4.5392 C.3     1  UNL1        0.0859
     39 C           1.8378   28.7894    9.8772 C.3     1  UNL1        0.0022
     40 C           2.6842   30.0648    9.8571 C.3     1  UNL1        0.0273
     41 C           4.1615   29.6995    9.7257 C.3     1  UNL1        0.0022
     42 C           2.5356   33.7282    5.1699 C.3     1  UNL1        0.0516
     43 C           1.3940   32.8047    4.7427 C.3     1  UNL1        0.0047
     44 C           3.1474   34.3738    3.9177 C.3     1  UNL1        0.0047
@<TRIPOS>BOND
     1    39    40    1
     2    40    41    1
     3    40     1    1
     4     1     2    1
     5     1    15    1
     6     2     3    2
     7     2     4   am
     8     4     5    1
     9     4     8    1
    10     5     6    1
    11     6     7    1
    12     7     8    1
    13     8     9    1
    14     9    10    1
    15     9    11    1
    16     9    15    1
    17    10    16    1
    18    11    12    1
    19    12    13    1
    20    12    42    1
    21    12    17    1
    22    17    18   am
    23    17    20    1
    24    18    19    2
    25    18    21    1
    26    21    22    1
    27    21    38    1
    28    22    23    2
    29    23    24    1
    30    23    35    1
    31    24    25   ar
    32    24    33   ar
    33    25    26   ar
    34    26    27   ar
    35    27    28   ar
    36    28    29   ar
    37    28    33   ar
    38    29    31   ar
    39    29    30    1
    40    31    32   ar
    41    32    33   ar
    42    32    34    1
    43    34    35    1
    44    35    36    1
    45    36    38    1
    46    36    37    1
    47    42    43    1
    48    42    44    1
    49    13    14    2
    50    13    15   am



#	Name:			CHEMBL1395
#	Creating user name:	trannguyen
#	Creation time:		Wed Dec  7 14:36:25 2022


#	Modifying user name:	trannguyen
#	Modification time:	Wed Dec  7 14:36:25 2022

@<TRIPOS>MOLECULE
CHEMBL1395
 23 26 0 0 0
SMALL
GASTEIGER

@<TRIPOS>ATOM
      1 C           2.6991   32.2552    4.9251 C.3     1  UNL1        0.0293
      2 C           3.5312   33.1226    5.8807 C.3     1  UNL1        0.0883
      3 O           2.9396   34.4361    5.8523 O.3     1  UNL1       -0.3867
      4 C           4.8535   33.2905    5.0936 C.3     1  UNL1        0.0269
      5 C           5.5465   32.1366    5.6962 C.3     1  UNL1        0.0025
      6 C           5.5564   32.6667    7.1385 C.3     1  UNL1        0.0023
      7 C           6.7175   31.8725    7.7125 C.3     1  UNL1        0.0007
      8 C           7.9649   32.5664    7.1023 C.3     1  UNL1        0.0044
      9 C           8.1835   33.9197    7.7427 C.3     1  UNL1        0.0221
     10 C           8.4883   33.5214    9.1258 C.2     1  UNL1       -0.0420
     11 C           9.8010   33.2442    9.2978 C.2     1  UNL1        0.0289
     12 C          10.0530   34.0961   10.4423 C.2     1  UNL1        0.1725
     13 O          10.7916   35.1017   10.3420 O.2     1  UNL1       -0.2914
     14 C           9.3540   33.6797   11.6923 C.3     1  UNL1        0.0694
     15 C           8.1260   32.7011   11.4037 C.3     1  UNL1        0.0118
     16 C           7.3580   32.9646   10.0234 C.3     1  UNL1        0.0157
     17 C           6.2523   33.9686   10.3716 C.3     1  UNL1        0.0041
     18 C           6.6816   31.7119    9.2328 C.3     1  UNL1        0.0035
     19 C           5.2222   31.1121    9.4521 C.3     1  UNL1        0.0004
     20 C           3.9395   31.4574    8.4723 C.3     1  UNL1        0.0023
     21 C           4.0551   32.6870    7.4877 C.3     1  UNL1        0.0226
     22 C           3.3844   33.8101    8.3413 C.3     1  UNL1        0.0023
     23 H           3.2383   34.8959    5.0454 H       1  UNL1        0.2102
@<TRIPOS>BOND
     1     2     4    1
     2     2    21    1
     3     2     3    1
     4     2     1    1
     5     3    23    1
     6     4     5    1
     7     5     6    1
     8     6     7    1
     9     6    21    1
    10     7     8    1
    11     7    18    1
    12     8     9    1
    13     9    10    1
    14    10    11    2
    15    10    16    1
    16    11    12    1
    17    12    14    1
    18    12    13    2
    19    14    15    1
    20    15    16    1
    21    16    18    1
    22    16    17    1
    23    18    19    1
    24    19    20    1
    25    20    21    1
    26    21    22    1



#	Name:			CHEMBL139835
#	Creating user name:	trannguyen
#	Creation time:		Wed Dec  7 14:36:25 2022


#	Modifying user name:	trannguyen
#	Modification time:	Wed Dec  7 14:36:25 2022

@<TRIPOS>MOLECULE
CHEMBL139835
 29 33 0 0 0
SMALL
GASTEIGER

@<TRIPOS>ATOM
      1 C           3.9747   32.7770    9.1088 C.3     1  UNL1        0.1859
      2 C           4.1388   31.9176    7.8340 C.3     1  UNL1        0.0474
      3 C           5.4720   32.3606    7.1825 C.3     1  UNL1        0.0045
      4 C           6.1032   33.3829    8.1451 C.3     1  UNL1        0.0078
      5 C           7.6350   33.5705    8.1858 C.3     1  UNL1        0.0233
      6 C           8.1932   33.8932    6.8317 C.2     1  UNL1       -0.0154
      7 C           9.3840   33.4771    6.3854 C.2     1  UNL1        0.0495
      8 CL          9.8812   34.0042    4.8071 Cl      1  UNL1       -0.0829
      9 C          10.2457   32.5991    7.1727 C.2     1  UNL1       -0.0097
     10 C          11.5808   32.6071    6.9939 C.2     1  UNL1        0.0340
     11 C          12.5210   31.7703    7.7639 C.2     1  UNL1        0.1724
     12 O          13.6863   31.6436    7.4396 O.2     1  UNL1       -0.2914
     13 C          11.9913   31.1363    8.9832 C.3     1  UNL1        0.0622
     14 C          11.3096   29.7996    8.9057 C.3     1  UNL1        0.0084
     15 C          10.5034   31.0461    9.2137 C.3     1  UNL1        0.0115
     16 C           9.5214   31.6938    8.2029 C.3     1  UNL1        0.0205
     17 C           8.7965   30.5758    7.4204 C.3     1  UNL1        0.0044
     18 C           8.4853   32.5745    9.0270 C.3     1  UNL1        0.0078
     19 C           7.7024   31.8110   10.1311 C.3     1  UNL1        0.0008
     20 C           6.1832   31.7251   10.0025 C.3     1  UNL1        0.0038
     21 C           5.4907   33.0234    9.5058 C.3     1  UNL1        0.0404
     22 C           5.7102   34.1710   10.5124 C.3     1  UNL1        0.0039
     23 C           3.2246   34.1308    8.8542 C.2     1  UNL1        0.1869
     24 C           2.4366   34.7692    9.9779 C.3     1  UNL1        0.0760
     25 O           3.3114   34.7107    7.7658 O.2     1  UNL1       -0.2924
     26 O           3.3191   32.0295   10.1625 O.3     1  UNL1       -0.4486
     27 C           3.0365   29.6713   10.0623 C.3     1  UNL1        0.1212
     28 C           2.4535   31.0345    9.7937 C.2     1  UNL1        0.3177
     29 O           1.3707   31.2074    9.2646 O.2     1  UNL1       -0.2501
@<TRIPOS>BOND
     1    27    28    1
     2    28    29    2
     3    28    26    1
     4     1     2    1
     5     1    21    1
     6     1    26    1
     7     1    23    1
     8    23    24    1
     9    23    25    2
    10     2     3    1
    11     3     4    1
    12     4     5    1
    13     4    21    1
    14     5     6    1
    15     5    18    1
    16     6     7    2
    17     7     9    1
    18     7     8    1
    19     9    10    2
    20     9    16    1
    21    10    11    1
    22    11    13    1
    23    11    12    2
    24    13    14    1
    25    13    15    1
    26    14    15    1
    27    15    16    1
    28    16    18    1
    29    16    17    1
    30    18    19    1
    31    19    20    1
    32    20    21    1
    33    21    22    1



#	Name:			CHEMBL1400945
#	Creating user name:	trannguyen
#	Creation time:		Wed Dec  7 14:36:25 2022


#	Modifying user name:	trannguyen
#	Modification time:	Wed Dec  7 14:36:25 2022

@<TRIPOS>MOLECULE
CHEMBL1400945
 26 29 0 0 0
SMALL
GASTEIGER

@<TRIPOS>ATOM
      1 C           8.1775   33.5085    7.9017 C.3     1  UNL1        0.0716
      2 C           8.1130   32.7372    6.5648 C.3     1  UNL1        0.0983
      3 C           7.9741   31.2565    6.9237 C.3     1  UNL1        0.0156
      4 C           7.5794   31.1742    8.4071 C.3     1  UNL1        0.0018
      5 C           6.0480   31.0271    8.6271 C.3     1  UNL1        0.0047
      6 C           5.7621   30.0105    9.7573 C.3     1  UNL1        0.0254
      7 C           4.3040   29.9111   10.0857 C.2     1  UNL1       -0.0345
      8 C           3.3923   30.8375    9.7404 C.2     1  UNL1       -0.0467
      9 C           1.9145   30.5470    9.8532 C.3     1  UNL1        0.0509
     10 C           1.2898   30.5058    8.4509 C.3     1  UNL1        0.1145
     11 O          -0.1288   30.3987    8.5510 O.3     1  UNL1       -0.3841
     12 C           1.6253   31.7504    7.6233 C.3     1  UNL1        0.0299
     13 C           3.1265   32.0772    7.6238 C.3     1  UNL1        0.0062
     14 C           3.7541   32.1542    9.0504 C.3     1  UNL1        0.0150
     15 C           3.1305   33.3629    9.7955 C.3     1  UNL1        0.0040
     16 C           5.3221   32.3523    8.9329 C.3     1  UNL1        0.0038
     17 C           5.9715   33.0491   10.1523 C.3     1  UNL1        0.0003
     18 C           7.4857   32.8614   10.3016 C.3     1  UNL1        0.0005
     19 C           8.2359   32.4336    9.0303 C.3     1  UNL1        0.0076
     20 C           9.6920   32.0920    9.4280 C.3     1  UNL1        0.0005
     21 H          -0.3256   29.5653    9.0117 H       1  UNL1        0.2103
     22 C          10.3513   34.3718    6.7885 C.3     1  UNL1        0.0723
     23 C           9.3392   34.5011    7.8974 C.2     1  UNL1        0.1517
     24 O           9.4438   35.3866    8.7460 O.2     1  UNL1       -0.2960
     25 C           6.9755   33.1989    5.7496 C.1     1  UNL1        0.0725
     26 N           6.0618   33.5487    5.1257 N.1     1  UNL1       -0.1959
@<TRIPOS>BOND
     1    22    23    1
     2    23    24    2
     3    23     1    1
     4     1     2    1
     5     1    19    1
     6     2     3    1
     7     2    25    1
     8    25    26    3
     9     3     4    1
    10     4     5    1
    11     4    19    1
    12     5     6    1
    13     5    16    1
    14     6     7    1
    15     7     8    2
    16     8     9    1
    17     8    14    1
    18     9    10    1
    19    10    12    1
    20    10    11    1
    21    11    21    1
    22    12    13    1
    23    13    14    1
    24    14    16    1
    25    14    15    1
    26    16    17    1
    27    17    18    1
    28    18    19    1
    29    19    20    1



#	Name:			CHEMBL14053
#	Creating user name:	trannguyen
#	Creation time:		Wed Dec  7 14:36:25 2022


#	Modifying user name:	trannguyen
#	Modification time:	Wed Dec  7 14:36:25 2022

@<TRIPOS>MOLECULE
CHEMBL14053
 8 7 0 0 0
SMALL
GASTEIGER

@<TRIPOS>ATOM
      1 O           2.0460   27.9664   12.5502 O.2     1  UNL1       -0.2462
      2 C           1.6119   28.0924   11.4089 C.2     1  UNL1        0.3566
      3 O           0.2751   27.9406   11.1774 O.3     1  UNL1       -0.4777
      4 H           0.0132   28.0634   10.2394 H       1  UNL1        0.2952
      5 C           2.4839   28.3705   10.1696 C.3     1  UNL1        0.2873
      6 CL          2.8783   26.8121    9.4066 Cl      1  UNL1       -0.0717
      7 CL          1.5806   29.3826    8.9966 Cl      1  UNL1       -0.0717
      8 CL          3.9609   29.2271   10.6610 Cl      1  UNL1       -0.0717
@<TRIPOS>BOND
     1     1     2    2
     2     2     3    1
     3     2     5    1
     4     3     4    1
     5     5     6    1
     6     5     7    1
     7     5     8    1



#	Name:			CHEMBL141343
#	Creating user name:	trannguyen
#	Creation time:		Wed Dec  7 14:36:25 2022


#	Modifying user name:	trannguyen
#	Modification time:	Wed Dec  7 14:36:25 2022

@<TRIPOS>MOLECULE
CHEMBL141343
 39 44 0 0 0
SMALL
GASTEIGER

@<TRIPOS>ATOM
      1 N           9.3482   32.8437    8.3845 N.3     1  UNL1       -0.2668
      2 C           9.4278   31.5103    7.7571 C.3     1  UNL1        0.0939
      3 C           8.6021   31.3795    6.4631 C.3     1  UNL1        0.1095
      4 N           8.9410   32.4260    5.4864 N.pl3   1  UNL1       -0.2902
      5 C           9.4314   33.7397    5.9732 C.3     1  UNL1        0.1095
      6 C          10.0323   33.7285    7.4066 C.3     1  UNL1        0.0939
      7 C           8.0049   32.5356    4.4220 C.ar    1  UNL1        0.1375
      8 C           6.6668   32.4537    4.7514 C.ar    1  UNL1        0.0687
      9 C           5.7204   32.5513    3.7534 C.ar    1  UNL1        0.1374
     10 N           6.1074   32.7741    2.4972 N.ar    1  UNL1       -0.1986
     11 C           7.4214   32.8475    2.2018 C.ar    1  UNL1        0.2224
     12 N           8.3780   32.7253    3.1447 N.ar    1  UNL1       -0.1986
     13 N           4.3698   32.4400    4.0562 N.pl3   1  UNL1       -0.2931
     14 C           3.7529   33.2267    5.1243 C.3     1  UNL1        0.0922
     15 C           2.7712   32.2614    5.7795 C.3     1  UNL1        0.0232
     16 C           2.3810   31.3429    4.6345 C.3     1  UNL1        0.0232
     17 C           3.7045   31.1541    3.8900 C.3     1  UNL1        0.0922
     18 N           7.7904   33.0565    0.9013 N.pl3   1  UNL1       -0.2781
     19 C           7.9513   31.9262    0.0070 C.3     1  UNL1        0.0937
     20 C           8.1783   32.6016   -1.3447 C.3     1  UNL1        0.0233
     21 C           7.2597   33.8127   -1.2684 C.3     1  UNL1        0.0233
     22 C           7.3535   34.2532    0.1956 C.3     1  UNL1        0.0937
     23 C           7.9680   33.3449    8.6651 C.3     1  UNL1        0.1126
     24 C           0.7605   32.7226    9.8830 C.3     1  UNL1        0.0340
     25 C           2.1130   32.0618    9.7895 C.ar    1  UNL1        0.0105
     26 C           3.2521   32.8011    9.4023 C.ar    1  UNL1        0.0107
     27 C           3.1482   34.2792    9.1146 C.3     1  UNL1        0.0340
     28 C           4.5046   32.1584    9.3535 C.ar    1  UNL1        0.1298
     29 C           4.6296   30.7775    9.6136 C.ar    1  UNL1        0.0105
     30 C           3.4944   30.0375   10.0135 C.ar    1  UNL1        0.0104
     31 C           3.6168   28.5795   10.3782 C.3     1  UNL1        0.0340
     32 C           2.2483   30.6878   10.0508 C.ar    1  UNL1        0.1252
     33 O           1.1035   29.9931   10.3475 O.3     1  UNL1       -0.5062
     34 C           5.9828   30.1136    9.5244 C.3     1  UNL1        0.0328
     35 C           7.0123   31.0178    8.8620 C.3     1  UNL1        0.0462
     36 C           6.8843   32.4574    9.4044 C.3     1  UNL1        0.1481
     37 C           7.0516   32.4459   10.9350 C.3     1  UNL1        0.0451
     38 O           5.5832   32.9614    9.0546 O.3     1  UNL1       -0.4819
     39 H           1.2339   29.0618   10.1123 H       1  UNL1        0.2922
@<TRIPOS>BOND
     1    24    25    1
     2    25    26   ar
     3    25    32   ar
     4    26    27    1
     5    26    28   ar
     6    28    29   ar
     7    28    38    1
     8    29    30   ar
     9    29    34    1
    10    30    31    1
    11    30    32   ar
    12    32    33    1
    13    33    39    1
    14    34    35    1
    15    35    36    1
    16    36    37    1
    17    36    23    1
    18    36    38    1
    19    23     1    1
    20     1     2    1
    21     1     6    1
    22     2     3    1
    23     3     4    1
    24     4     7    1
    25     4     5    1
    26     7     8   ar
    27     7    12   ar
    28     8     9   ar
    29     9    13    1
    30     9    10   ar
    31    13    14    1
    32    13    17    1
    33    14    15    1
    34    15    16    1
    35    16    17    1
    36    10    11   ar
    37    11    18    1
    38    11    12   ar
    39    18    19    1
    40    18    22    1
    41    19    20    1
    42    20    21    1
    43    21    22    1
    44     5     6    1



#	Name:			CHEMBL1419
#	Creating user name:	trannguyen
#	Creation time:		Wed Dec  7 14:36:25 2022


#	Modifying user name:	trannguyen
#	Modification time:	Wed Dec  7 14:36:25 2022

@<TRIPOS>MOLECULE
CHEMBL1419
 19 20 0 0 0
SMALL
GASTEIGER

@<TRIPOS>ATOM
      1 C           4.3215   32.5934    8.1844 C.3     1  UNL1        0.0323
      2 C           5.3309   33.4190    9.0998 C.3     1  UNL1        0.0054
      3 C           4.1146   34.1408    9.7142 C.3     1  UNL1        0.0007
      4 C           3.3858   33.8724    8.3937 C.3     1  UNL1        0.0054
      5 C           3.7604   31.1974    8.8884 C.ar    1  UNL1       -0.0215
      6 C           2.4041   30.7975    8.8184 C.ar    1  UNL1       -0.0034
      7 C           1.9193   29.7044    9.5521 C.ar    1  UNL1        0.0111
      8 C           2.7751   28.9287   10.3102 C.ar    1  UNL1        0.0577
      9 CL          2.1694   27.6358   11.2683 Cl      1  UNL1       -0.0822
     10 C           4.1405   29.2047   10.3101 C.ar    1  UNL1        0.0111
     11 C           4.6044   30.3199    9.6047 C.ar    1  UNL1       -0.0034
     12 C           4.8141   32.4151    6.6689 C.3     1  UNL1        0.0612
     13 N           6.1351   32.9995    6.3481 N.3     1  UNL1       -0.2713
     14 C           7.3078   32.1978    6.6534 C.3     1  UNL1        0.0896
     15 C           6.2516   33.6494    5.0533 C.3     1  UNL1        0.0896
     16 C           3.7443   32.8559    5.6078 C.3     1  UNL1        0.0163
     17 C           1.3759   32.5573    4.7457 C.3     1  UNL1        0.0000
     18 C           2.6686   31.8170    5.1414 C.3     1  UNL1        0.0013
     19 C           3.0581   30.9202    3.9612 C.3     1  UNL1        0.0000
@<TRIPOS>BOND
     1    17    18    1
     2    18    19    1
     3    18    16    1
     4    16    12    1
     5    12    13    1
     6    12     1    1
     7    13    14    1
     8    13    15    1
     9     1     5    1
    10     1     2    1
    11     1     4    1
    12     5     6   ar
    13     5    11   ar
    14     6     7   ar
    15     7     8   ar
    16     8     9    1
    17     8    10   ar
    18    10    11   ar
    19     2     3    1
    20     3     4    1



#	Name:			CHEMBL1430
#	Creating user name:	trannguyen
#	Creation time:		Wed Dec  7 14:36:25 2022


#	Modifying user name:	trannguyen
#	Modification time:	Wed Dec  7 14:36:25 2022

@<TRIPOS>MOLECULE
CHEMBL1430
 13 12 0 0 0
SMALL
GASTEIGER

@<TRIPOS>ATOM
      1 CA          2.8789   28.9093   10.0855 C.3     1  UNL1        0.1598
      2 N           4.1138   29.4886   10.7301 N.3     1  UNL1       -0.3128
      3 H1          4.3256   30.3544   10.2158 H       1  UNL1        0.1193
      4 H2          4.8998   28.8709   10.4965 H       1  UNL1        0.1193
      5 C           1.7727   31.1449   10.7436 C.3     1  UNL1        0.0125
      6 C           1.8051   29.9849    9.7366 C.3     1  UNL1        0.0590
      7 C           0.4021   29.3750    9.5996 C.3     1  UNL1        0.0125
      8 S           2.2352   30.7096    8.0793 S.3     1  UNL1       -0.1678
      9 H           1.1833   31.5391    7.9905 H       1  UNL1        0.1023
     10 C           2.3265   27.8351   11.0429 C.2     1  UNL1        0.3288
     11 O           2.0381   28.0092   12.2144 O.2     1  UNL1       -0.2488
     12 OXT         2.2028   26.6346   10.4158 O.3     1  UNL1       -0.4792
     13 HXT         2.4892   26.7898    9.4793 H       1  UNL1        0.2951
@<TRIPOS>BOND
     1     5     6    1
     2     6     7    1
     3     6     8    1
     4     6     1    1
     5     8     9    1
     6     1     2    1
     7     1    10    1
     8     2     3    1
     9     2     4    1
    10    10    11    2
    11    10    12    1
    12    12    13    1



#	Name:			CHEMBL1433
#	Creating user name:	trannguyen
#	Creation time:		Wed Dec  7 14:36:25 2022


#	Modifying user name:	trannguyen
#	Modification time:	Wed Dec  7 14:36:25 2022

@<TRIPOS>MOLECULE
CHEMBL1433
 39 42 0 0 0
SMALL
GASTEIGER

@<TRIPOS>ATOM
      1 C           5.3456   29.5012   10.5978 C.3     1  UNL1        0.0051
      2 C           4.8268   30.1834    9.3251 C.3     1  UNL1        0.0291
      3 C           3.3044   30.3488    9.2818 C.ar    1  UNL1       -0.0161
      4 C           2.4407   29.7362   10.2053 C.ar    1  UNL1       -0.0040
      5 C           1.0582   29.9195   10.1288 C.ar    1  UNL1        0.0028
      6 C           0.5096   30.7203    9.1321 C.ar    1  UNL1        0.0367
      7 C           1.3463   31.3316    8.2006 C.ar    1  UNL1        0.1364
      8 O           0.7921   32.1507    7.2582 O.3     1  UNL1       -0.5054
      9 C           2.7362   31.1423    8.2596 C.ar    1  UNL1        0.0684
     10 C           3.6328   31.7520    7.2413 C.2     1  UNL1        0.1970
     11 O           3.2641   31.9931    6.0946 O.2     1  UNL1       -0.2867
     12 C           5.0529   32.0155    7.6456 C.2     1  UNL1        0.0513
     13 C           5.9162   32.5213    6.7380 C.2     1  UNL1        0.1414
     14 O           5.5876   32.7075    5.4041 O.2     1  UNL1       -0.5072
     15 C           7.3686   32.7729    7.0623 C.3     1  UNL1        0.1966
     16 O           8.0559   31.6213    6.5450 O.3     1  UNL1       -0.3729
     17 C           7.9999   34.0426    6.3919 C.2     1  UNL1        0.2109
     18 O           7.4335   34.8567    5.6681 O.2     1  UNL1       -0.2882
     19 C           9.4547   34.2494    6.7040 C.2     1  UNL1        0.1212
     20 C           9.5167   34.3736    8.0467 C.2     1  UNL1        0.1329
     21 O           9.0131   35.5561    8.6089 O.2     1  UNL1       -0.5082
     22 C           9.1352   33.1120    8.8661 C.3     1  UNL1        0.1204
     23 C           7.6075   32.8772    8.5983 C.3     1  UNL1        0.0878
     24 C           6.9968   31.6400    9.2833 C.3     1  UNL1        0.1198
     25 O           7.2037   31.7027   10.6968 O.3     1  UNL1       -0.3839
     26 C           5.4593   31.5854    9.0457 C.3     1  UNL1        0.0593
     27 H          -0.1753   32.0816    7.2863 H       1  UNL1        0.2922
     28 H           4.6150   32.5675    5.3015 H       1  UNL1        0.2918
     29 H           7.6985   31.4811    5.6445 H       1  UNL1        0.2113
     30 H           9.1361   36.2858    7.9712 H       1  UNL1        0.2918
     31 H           8.1551   31.9072   10.8350 H       1  UNL1        0.2104
     32 C          10.4214   33.3398    6.0273 C.2     1  UNL1        0.2483
     33 N          10.0818   32.9889    4.7540 N.am    1  UNL1       -0.3252
     34 O          11.4802   32.9893    6.5266 O.2     1  UNL1       -0.2702
     35 H          10.7424   32.4254    4.2339 H       1  UNL1        0.1453
     36 H           9.2805   33.3652    4.2610 H       1  UNL1        0.1453
     37 N           9.5307   33.0985   10.2963 N.3     1  UNL1       -0.2652
     38 C          10.9008   32.5935   10.4533 C.3     1  UNL1        0.0900
     39 C           9.3947   34.3728   11.0096 C.3     1  UNL1        0.0900
@<TRIPOS>BOND
     1     2     3    1
     2     2    26    1
     3     2     1    1
     4     3     4   ar
     5     3     9   ar
     6     4     5   ar
     7     5     6   ar
     8     6     7   ar
     9     7     9   ar
    10     7     8    1
    11     8    27    1
    12     9    10    1
    13    10    12    1
    14    10    11    2
    15    12    13    2
    16    12    26    1
    17    13    15    1
    18    13    14    1
    19    14    28    1
    20    15    17    1
    21    15    23    1
    22    15    16    1
    23    16    29    1
    24    17    19    1
    25    17    18    2
    26    19    20    2
    27    19    32    1
    28    32    33   am
    29    32    34    2
    30    33    35    1
    31    33    36    1
    32    20    22    1
    33    20    21    1
    34    21    30    1
    35    22    23    1
    36    22    37    1
    37    37    38    1
    38    37    39    1
    39    23    24    1
    40    24    26    1
    41    24    25    1
    42    25    31    1



#	Name:			CHEMBL1440
#	Creating user name:	trannguyen
#	Creation time:		Wed Dec  7 14:36:25 2022


#	Modifying user name:	trannguyen
#	Modification time:	Wed Dec  7 14:36:25 2022

@<TRIPOS>MOLECULE
CHEMBL1440
 39 42 0 0 0
SMALL
GASTEIGER

@<TRIPOS>ATOM
      1 C           9.9245   32.8514    7.8663 C.3     1  UNL1        0.1180
      2 C           9.9965   32.4409    9.3351 C.2     1  UNL1        0.1328
      3 O           9.8320   31.0708    9.5293 O.2     1  UNL1       -0.5082
      4 C           9.5383   33.3048   10.2612 C.2     1  UNL1        0.1212
      5 C           8.0522   33.2703   10.0778 C.2     1  UNL1        0.2108
      6 O           7.2967   33.0611   11.0270 O.2     1  UNL1       -0.2882
      7 C           7.5633   33.6434    8.6363 C.3     1  UNL1        0.1943
      8 O           7.7668   35.0477    8.4279 O.3     1  UNL1       -0.3729
      9 C           6.0606   33.4130    8.5575 C.2     1  UNL1        0.1414
     10 O           5.3029   34.1964    9.4127 O.2     1  UNL1       -0.5072
     11 C           5.4851   32.5907    7.6669 C.2     1  UNL1        0.0512
     12 C           4.0095   32.4601    7.5186 C.2     1  UNL1        0.1970
     13 O           3.2332   32.4574    8.4670 O.2     1  UNL1       -0.2867
     14 C           3.5108   32.2699    6.1247 C.ar    1  UNL1        0.0706
     15 C           2.1287   32.1860    5.8928 C.ar    1  UNL1        0.1364
     16 O           1.1943   32.2340    6.8938 O.3     1  UNL1       -0.5054
     17 C           1.6319   32.0484    4.5994 C.ar    1  UNL1        0.0367
     18 C           2.5093   31.9925    3.5202 C.ar    1  UNL1        0.0029
     19 C           3.8859   32.0590    3.7359 C.ar    1  UNL1       -0.0017
     20 C           4.4116   32.1877    5.0366 C.ar    1  UNL1        0.0080
     21 C           5.9281   32.2652    5.2476 C.3     1  UNL1        0.1111
     22 C           6.3791   33.6977    4.9119 C.3     1  UNL1        0.0342
     23 O           6.5499   31.3713    4.3159 O.3     1  UNL1       -0.3824
     24 C           6.2524   31.7590    6.6868 C.3     1  UNL1        0.0569
     25 C           7.7310   31.6076    7.1029 C.3     1  UNL1        0.0122
     26 C           8.3932   32.9389    7.5040 C.3     1  UNL1        0.0611
     27 H          10.1026   30.6409    8.6881 H       1  UNL1        0.2918
     28 H           7.1216   35.5081    9.0035 H       1  UNL1        0.2113
     29 H           5.5277   33.9094   10.3274 H       1  UNL1        0.2918
     30 H           1.6707   32.3257    7.7507 H       1  UNL1        0.2922
     31 H           7.4754   31.6415    4.1995 H       1  UNL1        0.2107
     32 C          10.0750   34.7042   10.3373 C.2     1  UNL1        0.2483
     33 N          11.4283   34.8495   10.2467 N.am    1  UNL1       -0.3252
     34 O           9.3564   35.6742   10.5041 O.2     1  UNL1       -0.2702
     35 H          11.7917   35.7925   10.3118 H       1  UNL1        0.1453
     36 H          12.0840   34.0833   10.1842 H       1  UNL1        0.1453
     37 C          10.7678   32.3528    5.6186 C.3     1  UNL1        0.0900
     38 N          10.7399   31.9242    7.0278 N.3     1  UNL1       -0.2653
     39 C          12.1457   31.8792    7.4864 C.3     1  UNL1        0.0900
@<TRIPOS>BOND
     1    37    38    1
     2    38    39    1
     3     1     2    1
     4     1    26    1
     5     1    38    1
     6     2     4    2
     7     2     3    1
     8     3    27    1
     9     4     5    1
    10     4    32    1
    11    32    33   am
    12    32    34    2
    13    33    35    1
    14    33    36    1
    15     5     7    1
    16     5     6    2
    17     7     9    1
    18     7    26    1
    19     7     8    1
    20     8    28    1
    21     9    11    2
    22     9    10    1
    23    10    29    1
    24    11    12    1
    25    11    24    1
    26    12    14    1
    27    12    13    2
    28    14    15   ar
    29    14    20   ar
    30    15    17   ar
    31    15    16    1
    32    16    30    1
    33    17    18   ar
    34    18    19   ar
    35    19    20   ar
    36    20    21    1
    37    21    24    1
    38    21    22    1
    39    21    23    1
    40    23    31    1
    41    24    25    1
    42    25    26    1



#	Name:			CHEMBL1447
#	Creating user name:	trannguyen
#	Creation time:		Wed Dec  7 14:36:25 2022


#	Modifying user name:	trannguyen
#	Modification time:	Wed Dec  7 14:36:25 2022

@<TRIPOS>MOLECULE
CHEMBL1447
 32 33 0 0 0
SMALL
GASTEIGER

@<TRIPOS>ATOM
      1 C           7.4098   32.8078    9.6840 C.3     1  UNL1        0.1282
      2 C           8.3008   33.5350    8.5861 C.3     1  UNL1        0.1656
      3 O           9.7291   33.4236    8.8414 O.3     1  UNL1       -0.3410
      4 C          10.3499   32.2026    8.4034 C.3     1  UNL1        0.1918
      5 C          10.0688   31.8888    6.9134 C.3     1  UNL1        0.1772
      6 O          10.7751   32.7808    6.0343 O.3     1  UNL1       -0.3787
      7 C           8.5782   31.9733    6.6082 C.3     1  UNL1        0.1697
      8 O           7.9020   30.8852    7.2419 O.3     1  UNL1       -0.3794
      9 C           8.0314   33.3214    7.0745 C.3     1  UNL1        0.1685
     10 O           6.6615   33.4663    6.6904 O.3     1  UNL1       -0.3794
     11 H          11.6873   32.8437    6.3851 H       1  UNL1        0.2106
     12 H           6.9663   31.1469    7.3904 H       1  UNL1        0.2105
     13 H           6.6244   33.4015    5.7159 H       1  UNL1        0.2105
     14 S          12.1728   32.2821    8.6802 S.3     1  UNL1       -0.1086
     15 C          12.5065   30.5149    8.9523 C.3     1  UNL1        0.0716
     16 C           5.3868   31.2671    9.6711 C.2     1  UNL1        0.2370
     17 O           5.8511   30.5043   10.4922 O.2     1  UNL1       -0.2737
     18 N           6.0730   32.3683    9.1777 N.am    1  UNL1       -0.3004
     19 H           5.4994   33.0160    8.6571 H       1  UNL1        0.1496
     20 C           2.1832   32.0345    7.8019 C.3     1  UNL1        0.0178
     21 C           3.6876   32.1323    8.0202 C.3     1  UNL1        0.0267
     22 C           4.0026   31.0020    8.9911 C.3     1  UNL1        0.1348
     23 N           2.8366   31.0318    9.9210 N.3     1  UNL1       -0.2653
     24 C           2.4780   29.6972   10.4029 C.3     1  UNL1        0.0900
     25 C           1.6956   31.6305    9.1951 C.3     1  UNL1        0.0725
     26 C           1.7639   31.0483    6.6873 C.3     1  UNL1        0.0014
     27 C           1.3934   32.6353    4.6941 C.3     1  UNL1        0.0000
     28 C           2.1912   31.4732    5.2718 C.3     1  UNL1        0.0000
     29 C           7.2670   33.5648   11.0513 C.3     1  UNL1        0.1309
     30 C           6.1651   34.6305   11.0908 C.3     1  UNL1        0.0336
     31 O           7.0880   32.6512   12.1413 O.3     1  UNL1       -0.3827
     32 H           6.1194   32.4922   12.1909 H       1  UNL1        0.2104
@<TRIPOS>BOND
     1    27    28    1
     2    28    26    1
     3    20    21    1
     4    20    25    1
     5    20    26    1
     6    21    22    1
     7    22    23    1
     8    22    16    1
     9    16    17    2
    10    16    18   am
    11    18    19    1
    12     1    29    1
    13     1     2    1
    14     1    18    1
    15    29    30    1
    16    29    31    1
    17    31    32    1
    18     2     3    1
    19     2     9    1
    20     3     4    1
    21     4    14    1
    22     4     5    1
    23    14    15    1
    24     5     6    1
    25     5     7    1
    26     6    11    1
    27     7     9    1
    28     7     8    1
    29     8    12    1
    30     9    10    1
    31    10    13    1
    32    23    24    1
    33    23    25    1



#	Name:			CHEMBL1454946
#	Creating user name:	trannguyen
#	Creation time:		Wed Dec  7 14:36:25 2022


#	Modifying user name:	trannguyen
#	Modification time:	Wed Dec  7 14:36:25 2022

@<TRIPOS>MOLECULE
CHEMBL1454946
 25 27 0 0 0
SMALL
GASTEIGER

@<TRIPOS>ATOM
      1 C           6.4082   32.4382    3.4120 C.ar    1  UNL1        0.2029
      2 N           6.4139   32.8755    4.6478 N.ar    1  UNL1       -0.2136
      3 C           5.2226   32.4343    5.1818 C.ar    1  UNL1        0.0998
      4 C           4.7497   32.5062    6.4996 C.ar    1  UNL1        0.0238
      5 C           3.5272   31.8986    6.8234 C.ar    1  UNL1        0.0405
      6 C           2.7228   31.3711    5.7946 C.ar    1  UNL1        0.0048
      7 C           3.1459   31.3508    4.4582 C.ar    1  UNL1        0.0187
      8 C           4.4244   31.8454    4.2109 C.ar    1  UNL1        0.0765
      9 N           5.1895   31.9013    3.0793 N.ar    1  UNL1       -0.3252
     10 H           4.9305   31.5883    2.1564 H       1  UNL1        0.1686
     11 C           7.7500   31.3944    1.7885 C.2     1  UNL1        0.4076
     12 O           7.1071   30.3371    1.7769 O.2     1  UNL1       -0.2260
     13 N           7.4403   32.5092    2.5148 N.am    1  UNL1       -0.2212
     14 H           8.2146   33.1232    2.7273 H       1  UNL1        0.1610
     15 C           8.7183   32.3528   -0.1049 C.3     1  UNL1        0.2574
     16 O           8.8937   31.5877    1.0898 O.3     1  UNL1       -0.4303
     17 C           3.0067   31.8268    8.2224 C.2     1  UNL1        0.1956
     18 O           2.6584   32.8846    8.7496 O.2     1  UNL1       -0.2866
     19 C           2.8657   30.5580    9.0160 C.ar    1  UNL1        0.0391
     20 C           3.9385   29.8657    9.5960 C.ar    1  UNL1        0.0055
     21 C           3.7206   28.7426   10.4003 C.ar    1  UNL1        0.0297
     22 C           2.4359   28.2449   10.5511 C.ar    1  UNL1        0.1401
     23 F           2.2367   27.1505   11.2960 F       1  UNL1       -0.2042
     24 C           1.3626   28.8562    9.9189 C.ar    1  UNL1        0.0297
     25 C           1.5742   30.0174    9.1658 C.ar    1  UNL1        0.0055
@<TRIPOS>BOND
     1    15    16    1
     2    16    11    1
     3    11    12    2
     4    11    13   am
     5    13     1    1
     6    13    14    1
     7     1     2   ar
     8     1     9   ar
     9     2     3   ar
    10     3     4   ar
    11     3     8   ar
    12     4     5   ar
    13     5    17    1
    14     5     6   ar
    15    17    18    2
    16    17    19    1
    17    19    20   ar
    18    19    25   ar
    19    20    21   ar
    20    21    22   ar
    21    22    23    1
    22    22    24   ar
    23    24    25   ar
    24     6     7   ar
    25     7     8   ar
    26     8     9   ar
    27     9    10    1



#	Name:			CHEMBL1456
#	Creating user name:	trannguyen
#	Creation time:		Wed Dec  7 14:36:25 2022


#	Modifying user name:	trannguyen
#	Modification time:	Wed Dec  7 14:36:25 2022

@<TRIPOS>MOLECULE
CHEMBL1456
 32 34 0 0 0
SMALL
GASTEIGER

@<TRIPOS>ATOM
      1 C           2.9601   32.6076    7.6948 C.3     1  UNL1        0.0578
      2 C           4.0962   30.8132    9.1542 C.ar    1  UNL1        0.1337
      3 C           4.0373   29.6808   10.0081 C.ar    1  UNL1        0.0117
      4 C           5.2289   28.9832   10.5973 C.3     1  UNL1        0.0340
      5 C           2.7728   29.1494   10.2757 C.ar    1  UNL1        0.0294
      6 C           1.6380   29.6805    9.7082 C.ar    1  UNL1        0.1083
      7 C           1.6617   30.7698    8.8647 C.ar    1  UNL1        0.1388
      8 O           0.5170   31.2360    8.2832 O.3     1  UNL1       -0.5055
      9 C           2.8990   31.3800    8.5994 C.ar    1  UNL1        0.0496
     10 C           0.4834   28.9009   10.1246 C.2     1  UNL1        0.3443
     11 O          -0.6529   29.1024    9.7761 O.2     1  UNL1       -0.2448
     12 O           0.9462   27.9222   10.9622 O.3     1  UNL1       -0.4404
     13 C           2.3703   27.9880   11.1103 C.3     1  UNL1        0.2355
     14 H          -0.2369   30.6668    8.5548 H       1  UNL1        0.2922
     15 C           5.9860   32.2901    9.4972 C.3     1  UNL1        0.2524
     16 O           5.2397   31.4071    8.6790 O.3     1  UNL1       -0.4720
     17 C           3.7053   32.3911    6.3924 C.2     1  UNL1       -0.0297
     18 C           3.1676   31.9723    5.2248 C.2     1  UNL1       -0.0473
     19 C           1.6928   31.6948    5.0578 C.3     1  UNL1        0.0260
     20 C           4.0380   31.7057    4.0009 C.3     1  UNL1        0.0334
     21 C           5.5359   31.9417    4.2205 C.3     1  UNL1        0.1139
     22 C           6.1470   33.0755    3.4244 C.2     1  UNL1        0.3174
     23 O           5.4731   33.8020    2.7005 O.2     1  UNL1       -0.2501
     24 O           7.4918   33.1961    3.5798 O.3     1  UNL1       -0.4470
     25 C           8.2712   32.1868    2.9028 C.3     1  UNL1        0.2257
     26 C           7.9083   32.1259    1.4040 C.3     1  UNL1        0.1203
     27 N           8.6551   33.0751    0.5622 N.3     1  UNL1       -0.2653
     28 C           8.9690   32.5063   -0.7706 C.3     1  UNL1        0.1047
     29 C           7.8027   32.5349   -1.7743 C.3     1  UNL1        0.1595
     30 O           7.3024   33.8655   -1.9391 O.3     1  UNL1       -0.3508
     31 C           6.8509   34.3816   -0.6827 C.3     1  UNL1        0.1595
     32 C           7.9740   34.3747    0.3689 C.3     1  UNL1        0.1047
@<TRIPOS>BOND
     1    15    16    1
     2    16     2    1
     3     2     3   ar
     4     2     9   ar
     5     3     4    1
     6     3     5   ar
     7     5     6   ar
     8     5    13    1
     9     6     7   ar
    10     6    10    1
    11     7     8    1
    12     7     9   ar
    13     8    14    1
    14     9     1    1
    15     1    17    1
    16    17    18    2
    17    18    19    1
    18    18    20    1
    19    20    21    1
    20    21    22    1
    21    22    23    2
    22    22    24    1
    23    24    25    1
    24    25    26    1
    25    26    27    1
    26    27    28    1
    27    27    32    1
    28    28    29    1
    29    29    30    1
    30    30    31    1
    31    31    32    1
    32    10    11    2
    33    10    12    1
    34    12    13    1



#	Name:			CHEMBL1460
#	Creating user name:	trannguyen
#	Creation time:		Wed Dec  7 14:36:25 2022


#	Modifying user name:	trannguyen
#	Modification time:	Wed Dec  7 14:36:25 2022

@<TRIPOS>MOLECULE
CHEMBL1460
 19 21 0 0 0
SMALL
GASTEIGER

@<TRIPOS>ATOM
      1 O           5.1699   33.1358    5.2424 O.2     1  UNL1       -0.2654
      2 C           4.1368   32.6987    5.7372 C.ar    1  UNL1        0.2795
      3 N           2.9445   32.6598    5.0279 N.ar    1  UNL1       -0.3026
      4 H           2.9916   33.0182    4.0863 H       1  UNL1        0.1705
      5 C           1.7580   32.1711    5.5450 C.ar    1  UNL1        0.1788
      6 N           1.5974   31.6952    6.7443 N.ar    1  UNL1       -0.2064
      7 C           2.7429   31.7307    7.4692 C.ar    1  UNL1        0.1709
      8 C           3.9885   32.1761    7.0800 C.ar    1  UNL1        0.1728
      9 N           4.9083   32.0404    8.0866 N.ar    1  UNL1       -0.2174
     10 C           4.2198   31.5365    9.0914 C.ar    1  UNL1        0.1816
     11 N           2.9005   31.3373    8.7688 N.ar    1  UNL1       -0.2715
     12 C           1.8639   30.8091    9.6293 C.3     1  UNL1        0.2069
     13 C           0.9797   29.7706    8.9572 C.3     1  UNL1        0.0566
     14 C           0.5543   28.9130   10.1242 C.3     1  UNL1        0.0368
     15 C           1.7866   28.9119   11.0104 C.3     1  UNL1        0.1466
     16 O           2.4668   30.1644   10.7740 O.3     1  UNL1       -0.3353
     17 C           2.7649   27.7771   10.6901 C.3     1  UNL1        0.1666
     18 O           2.0864   26.5249   10.7680 O.3     1  UNL1       -0.3795
     19 H           1.5373   26.5591   11.5752 H       1  UNL1        0.2105
@<TRIPOS>BOND
     1     1     2    2
     2     2     3   ar
     3     2     8   ar
     4     3     4    1
     5     3     5   ar
     6     5     6   ar
     7     6     7   ar
     8     7     8   ar
     9     7    11   ar
    10     8     9   ar
    11     9    10   ar
    12    10    11   ar
    13    11    12    1
    14    12    13    1
    15    12    16    1
    16    13    14    1
    17    14    15    1
    18    15    16    1
    19    15    17    1
    20    17    18    1
    21    18    19    1



#	Name:			CHEMBL146964
#	Creating user name:	trannguyen
#	Creation time:		Wed Dec  7 14:36:25 2022


#	Modifying user name:	trannguyen
#	Modification time:	Wed Dec  7 14:36:25 2022

@<TRIPOS>MOLECULE
CHEMBL146964
 32 32 0 0 0
SMALL
GASTEIGER

@<TRIPOS>ATOM
      1 C           2.5857   31.1570    9.1692 C.3     1  UNL1        0.0039
      2 C           1.5652   30.6228    8.1546 C.3     1  UNL1        0.0001
      3 C           1.4773   31.4420    6.8909 C.3     1  UNL1        0.0003
      4 C           2.8422   31.5035    6.2437 C.3     1  UNL1        0.0045
      5 C           3.8422   32.2224    7.1566 C.3     1  UNL1        0.0254
      6 C           3.9802   31.5442    8.5563 C.3     1  UNL1        0.0479
      7 C           5.1468   32.3422    6.3951 C.2     1  UNL1       -0.0285
      8 C           5.1950   32.4401    5.0550 C.2     1  UNL1       -0.0020
      9 C           6.4527   32.3867    4.2378 C.3     1  UNL1        0.1346
     10 O           6.4511   31.1440    3.5463 O.3     1  UNL1       -0.3800
     11 H           6.1421   30.4657    4.1736 H       1  UNL1        0.2108
     12 C           6.5089   33.5121    3.2051 C.3     1  UNL1        0.0636
     13 C           7.8278   33.5917    2.4189 C.3     1  UNL1        0.1244
     14 O           8.7056   32.6055    2.9850 O.3     1  UNL1       -0.3838
     15 H           8.9598   32.9360    3.8683 H       1  UNL1        0.2104
     16 C           7.6604   33.2603    0.9417 C.3     1  UNL1        0.1385
     17 C           8.1376   31.8711    0.6391 C.2     1  UNL1        0.3163
     18 O           7.4491   30.8560    0.8172 O.2     1  UNL1       -0.2502
     19 O           9.4000   31.8115    0.1677 O.3     1  UNL1       -0.4801
     20 H           9.7594   32.7006   -0.0254 H       1  UNL1        0.2951
     21 C           2.7067   30.1277   10.3205 C.3     1  UNL1        0.0001
     22 C           3.0339   27.6165   10.1686 C.3     1  UNL1        0.0000
     23 C           3.6692   28.9800    9.9740 C.3     1  UNL1        0.0000
     24 C           4.7998   32.4724    9.5105 C.3     1  UNL1        0.2086
     25 O           5.9234   31.7550   10.0616 O.3     1  UNL1       -0.4485
     26 C           6.9147   32.5006   10.6245 C.2     1  UNL1        0.3159
     27 O           6.8061   33.0880   11.6995 O.2     1  UNL1       -0.2501
     28 C           8.1432   32.6101    9.6991 C.3     1  UNL1        0.0896
     29 C           9.3543   32.9474   10.5674 C.3     1  UNL1        0.0111
     30 C           8.3784   31.2748    8.9684 C.3     1  UNL1        0.0111
     31 C           7.8924   33.7305    8.6459 C.3     1  UNL1        0.0106
     32 C           8.4670   33.4542    7.2570 C.3     1  UNL1        0.0006
@<TRIPOS>BOND
     1    22    23    1
     2    23    21    1
     3     1     2    1
     4     1     6    1
     5     1    21    1
     6     2     3    1
     7     3     4    1
     8     4     5    1
     9     5     7    1
    10     5     6    1
    11     7     8    2
    12     8     9    1
    13     9    10    1
    14     9    12    1
    15    10    11    1
    16    12    13    1
    17    13    14    1
    18    13    16    1
    19    14    15    1
    20    16    17    1
    21    17    18    2
    22    17    19    1
    23    19    20    1
    24     6    24    1
    25    24    25    1
    26    25    26    1
    27    26    27    2
    28    26    28    1
    29    28    29    1
    30    28    30    1
    31    28    31    1
    32    31    32    1



#	Name:			CHEMBL1477
#	Creating user name:	trannguyen
#	Creation time:		Wed Dec  7 14:36:24 2022


#	Modifying user name:	trannguyen
#	Modification time:	Wed Dec  7 14:36:24 2022

@<TRIPOS>MOLECULE
CHEMBL1477
 36 37 0 0 0
SMALL
GASTEIGER

@<TRIPOS>ATOM
      1 C           7.5881   33.1157    4.2509 C.ar    1  UNL1        0.0208
      2 C           6.9803   32.8467    3.0155 C.ar    1  UNL1        0.0566
      3 N           5.7845   32.2182    3.0098 N.ar    1  UNL1       -0.2542
      4 C           5.0247   32.1278    4.1260 C.ar    1  UNL1        0.0581
      5 C           5.5630   32.3777    5.4114 C.ar    1  UNL1        0.0131
      6 C           6.9666   32.6161    5.4643 C.ar    1  UNL1        0.0006
      7 C           7.8298   32.2161    6.6683 C.ar    1  UNL1       -0.0000
      8 C           8.3381   30.8918    6.7963 C.ar    1  UNL1        0.0023
      9 C           9.1972   30.4977    7.8360 C.ar    1  UNL1        0.0296
     10 C           9.4663   31.3808    8.8629 C.ar    1  UNL1        0.1401
     11 F          10.2622   31.0107    9.8745 F       1  UNL1       -0.2042
     12 C           8.9112   32.6473    8.8473 C.ar    1  UNL1        0.0296
     13 C           8.1316   33.0615    7.7512 C.ar    1  UNL1        0.0023
     14 C           7.4707   33.0721    1.5779 C.3     1  UNL1        0.0400
     15 C           7.7569   31.6981    0.8992 C.3     1  UNL1        0.0063
     16 C           6.7627   34.0563    0.6376 C.3     1  UNL1        0.0063
     17 C           3.6016   31.7319    3.7560 C.3     1  UNL1        0.0403
     18 C           2.9032   30.9020    4.7992 C.3     1  UNL1        0.0063
     19 C           2.6646   32.9145    3.4726 C.3     1  UNL1        0.0063
     20 C           4.6665   32.8741    6.5245 C.2     1  UNL1       -0.0010
     21 C           4.4513   32.4016    7.7729 C.2     1  UNL1        0.0026
     22 C           3.2903   32.7038    8.7246 C.3     1  UNL1        0.1349
     23 O           2.8198   34.0160    8.4579 O.3     1  UNL1       -0.3800
     24 H           3.6002   34.5749    8.3054 H       1  UNL1        0.2108
     25 C           2.0876   31.7462    8.9508 C.3     1  UNL1        0.0636
     26 C           2.1818   30.6032    9.9778 C.3     1  UNL1        0.1244
     27 O           1.8452   31.1885   11.2534 O.3     1  UNL1       -0.3838
     28 H           1.4761   30.4887   11.8291 H       1  UNL1        0.2104
     29 C           1.2469   29.4328    9.6899 C.3     1  UNL1        0.1385
     30 C           1.0555   28.5497   10.9043 C.2     1  UNL1        0.3163
     31 O           1.8016   28.3940   11.7979 O.2     1  UNL1       -0.2502
     32 O          -0.1552   27.8803   10.8677 O.3     1  UNL1       -0.4801
     33 H          -0.1071   27.3067   11.6590 H       1  UNL1        0.2951
     34 C           8.8205   33.9818    4.3985 C.3     1  UNL1        0.1699
     35 C          10.9713   33.7516    5.2509 C.3     1  UNL1        0.1746
     36 O          10.0554   33.2681    4.2626 O.3     1  UNL1       -0.3463
@<TRIPOS>BOND
     1    35    36    1
     2    36    34    1
     3    34     1    1
     4     1     2   ar
     5     1     6   ar
     6     2    14    1
     7     2     3   ar
     8    14    15    1
     9    14    16    1
    10     3     4   ar
    11     4    17    1
    12     4     5   ar
    13    17    18    1
    14    17    19    1
    15     5    20    1
    16     5     6   ar
    17    20    21    2
    18    21    22    1
    19    22    23    1
    20    22    25    1
    21    23    24    1
    22    25    26    1
    23    26    27    1
    24    26    29    1
    25    27    28    1
    26    29    30    1
    27    30    31    2
    28    30    32    1
    29    32    33    1
    30     6     7    1
    31     7     8   ar
    32     7    13   ar
    33     8     9   ar
    34     9    10   ar
    35    10    11    1
    36    10    12   ar
    37    12    13   ar






#	Name:			CHEMBL1480
#	Creating user name:	trannguyen
#	Creation time:		Wed Dec  7 14:36:25 2022


#	Modifying user name:	trannguyen
#	Modification time:	Wed Dec  7 14:36:25 2022

@<TRIPOS>MOLECULE
CHEMBL1480
 26 27 0 0 0
SMALL
GASTEIGER

@<TRIPOS>ATOM
      1 C           3.3461   32.0664    6.6615 C.2     1  UNL1        0.0707
      2 C           2.0570   31.9376    6.2774 C.2     1  UNL1        0.0283
      3 C           1.4603   32.4408    4.9828 C.3     1  UNL1        0.0470
      4 N           1.1658   31.2757    7.1017 N.pl3   1  UNL1       -0.3192
      5 C           1.4912   30.6575    8.3005 C.2     1  UNL1        0.0283
      6 C           0.3347   29.9708    8.9916 C.3     1  UNL1        0.0470
      7 C           2.7631   30.7008    8.7595 C.2     1  UNL1        0.0707
      8 C           3.8430   31.4696    7.9820 C.3     1  UNL1        0.0821
      9 H           0.1945   31.2434    6.8022 H       1  UNL1        0.1516
     10 C           4.6198   32.5026    8.8339 C.ar    1  UNL1       -0.0024
     11 C           3.8909   33.6262    9.2968 C.ar    1  UNL1       -0.0027
     12 C           4.4624   34.5838   10.1309 C.ar    1  UNL1        0.0006
     13 C           5.7804   34.4357   10.5389 C.ar    1  UNL1        0.0122
     14 C           6.5317   33.3441   10.0920 C.ar    1  UNL1        0.0679
     15 CL          8.1580   33.2311   10.6793 Cl      1  UNL1       -0.0814
     16 C           5.9678   32.3826    9.2280 C.ar    1  UNL1        0.0648
     17 CL          6.9404   31.0613    8.6709 Cl      1  UNL1       -0.0817
     18 C           4.3859   32.7867    5.8759 C.2     1  UNL1        0.3387
     19 O           4.3769   33.9778    5.6627 O.2     1  UNL1       -0.2452
     20 O           5.2326   31.8817    5.3232 O.3     1  UNL1       -0.4456
     21 C           6.3533   30.9279    3.4723 C.3     1  UNL1        0.0513
     22 C           5.1122   31.6716    3.9182 C.3     1  UNL1        0.2089
     23 C           3.1866   29.9654    9.9868 C.2     1  UNL1        0.3388
     24 O           2.7110   30.1031   11.0976 O.2     1  UNL1       -0.2452
     25 O           4.1882   29.0999    9.6780 O.3     1  UNL1       -0.4415
     26 C           3.9672   27.7375   10.0372 C.3     1  UNL1        0.2559
@<TRIPOS>BOND
     1    21    22    1
     2    22    20    1
     3    20    18    1
     4    18    19    2
     5    18     1    1
     6     1     2    2
     7     1     8    1
     8     2     3    1
     9     2     4    1
    10     4     5    1
    11     4     9    1
    12     5     6    1
    13     5     7    2
    14     7    23    1
    15     7     8    1
    16    23    24    2
    17    23    25    1
    18    25    26    1
    19     8    10    1
    20    10    11   ar
    21    10    16   ar
    22    11    12   ar
    23    12    13   ar
    24    13    14   ar
    25    14    15    1
    26    14    16   ar
    27    16    17    1



#	Name:			CHEMBL1487
#	Creating user name:	trannguyen
#	Creation time:		Wed Dec  7 14:36:24 2022


#	Modifying user name:	trannguyen
#	Modification time:	Wed Dec  7 14:36:24 2022

@<TRIPOS>MOLECULE
CHEMBL1487
 45 48 0 0 0
SMALL
GASTEIGER

@<TRIPOS>ATOM
      1 C           3.6691   33.0119    6.4560 C.ar    1  UNL1        0.0410
      2 C           4.9952   32.5843    6.1556 C.ar    1  UNL1        0.0667
      3 C           5.6995   32.4584    7.4251 C.ar    1  UNL1        0.0212
      4 C           4.6490   32.3160    8.3336 C.ar    1  UNL1        0.0597
      5 N           3.6914   33.2060    7.8458 N.ar    1  UNL1       -0.3304
      6 C           4.2428   31.0381    8.9611 C.ar    1  UNL1        0.0159
      7 C           2.8900   30.6402    8.9694 C.ar    1  UNL1        0.0037
      8 C           2.4887   29.4969    9.6632 C.ar    1  UNL1        0.0297
      9 C           3.4393   28.7431   10.3354 C.ar    1  UNL1        0.1401
     10 F           3.0641   27.6565   11.0208 F       1  UNL1       -0.2042
     11 C           4.7819   29.0856   10.2869 C.ar    1  UNL1        0.0297
     12 C           5.1773   30.2296    9.5998 C.ar    1  UNL1        0.0037
     13 C           7.0760   32.0913    7.8228 C.ar    1  UNL1        0.0016
     14 C           7.7867   32.7042    8.8569 C.ar    1  UNL1        0.0000
     15 C           9.0502   32.2434    9.2544 C.ar    1  UNL1        0.0000
     16 C           9.6478   31.1740    8.5982 C.ar    1  UNL1        0.0000
     17 C           8.9962   30.5899    7.5184 C.ar    1  UNL1        0.0000
     18 C           7.7252   31.0443    7.1361 C.ar    1  UNL1        0.0000
     19 C           5.4811   32.2096    4.8311 C.2     1  UNL1        0.2506
     20 O           5.0922   31.1398    4.2932 O.2     1  UNL1       -0.2698
     21 N           6.2883   33.1106    4.2107 N.am    1  UNL1       -0.2803
     22 H           6.5298   33.9400    4.7408 H       1  UNL1        0.1552
     23 C           6.8982   32.9789    2.9469 C.ar    1  UNL1        0.0505
     24 C           6.6427   33.8505    1.8846 C.ar    1  UNL1        0.0147
     25 C           7.0859   33.5383    0.5980 C.ar    1  UNL1        0.0013
     26 C           7.8315   32.3847    0.3788 C.ar    1  UNL1        0.0001
     27 C           8.1904   31.5759    1.4551 C.ar    1  UNL1        0.0013
     28 C           7.7246   31.8731    2.7368 C.ar    1  UNL1        0.0147
     29 C           2.6957   33.9600    4.2872 C.3     1  UNL1        0.0062
     30 C           2.4316   33.1572    5.5661 C.3     1  UNL1        0.0385
     31 C           1.8330   31.8755    5.0532 C.3     1  UNL1        0.0062
     32 C           3.3129   34.4245    8.5672 C.3     1  UNL1        0.1082
     33 C           2.4997   34.2697    9.8654 C.3     1  UNL1        0.0538
     34 C           2.1274   35.5407   10.6810 C.3     1  UNL1        0.1149
     35 O           3.2235   35.8479   11.5514 O.3     1  UNL1       -0.3843
     36 H           4.0041   36.0149   10.9885 H       1  UNL1        0.2103
     37 C           1.8821   36.8079    9.8394 C.3     1  UNL1        0.0591
     38 C           1.1223   37.9943   10.5049 C.3     1  UNL1        0.1241
     39 O           1.8109   38.3792   11.6941 O.3     1  UNL1       -0.3838
     40 H           2.0141   37.5393   12.1663 H       1  UNL1        0.2104
     41 C           1.0572   39.2273    9.5750 C.3     1  UNL1        0.1385
     42 C           0.8829   40.5972   10.2103 C.2     1  UNL1        0.3163
     43 O          -0.1561   41.2408   10.1162 O.2     1  UNL1       -0.2502
     44 O           1.9914   41.1219   10.7680 O.3     1  UNL1       -0.4801
     45 H           2.7702   40.5270   10.6680 H       1  UNL1        0.2951
@<TRIPOS>BOND
     1    29    30    1
     2    30    31    1
     3    30     1    1
     4     1     2   ar
     5     1     5   ar
     6     2    19    1
     7     2     3   ar
     8    19    20    2
     9    19    21   am
    10    21    23    1
    11    21    22    1
    12    23    24   ar
    13    23    28   ar
    14    24    25   ar
    15    25    26   ar
    16    26    27   ar
    17    27    28   ar
    18     3    13    1
    19     3     4   ar
    20    13    14   ar
    21    13    18   ar
    22    14    15   ar
    23    15    16   ar
    24    16    17   ar
    25    17    18   ar
    26     4     6    1
    27     4     5   ar
    28     6     7   ar
    29     6    12   ar
    30     7     8   ar
    31     8     9   ar
    32     9    10    1
    33     9    11   ar
    34    11    12   ar
    35     5    32    1
    36    32    33    1
    37    33    34    1
    38    34    35    1
    39    34    37    1
    40    35    36    1
    41    37    38    1
    42    38    39    1
    43    38    41    1
    44    39    40    1
    45    41    42    1
    46    42    43    2
    47    42    44    1
    48    44    45    1






#	Name:			CHEMBL1489254
#	Creating user name:	trannguyen
#	Creation time:		Wed Dec  7 14:36:25 2022


#	Modifying user name:	trannguyen
#	Modification time:	Wed Dec  7 14:36:25 2022

@<TRIPOS>MOLECULE
CHEMBL1489254
 15 14 0 0 0
SMALL
GASTEIGER

@<TRIPOS>ATOM
      1 C           3.8350   30.3369    9.5033 C.3     1  UNL1        0.2556
      2 C           5.2123   31.0090    9.4102 C.3     1  UNL1        0.2556
      3 O           5.9176   30.8941   10.6597 O.3     1  UNL1       -0.4444
      4 C           7.8672   31.7744    9.7201 C.3     1  UNL1        0.1212
      5 C           6.9055   31.8078   10.8720 C.2     1  UNL1        0.3177
      6 O           7.0004   32.5311   11.8451 O.2     1  UNL1       -0.2501
      7 C           3.9159   28.9796   10.2006 C.3     1  UNL1        0.2556
      8 O           2.9940   28.9254   11.3054 O.3     1  UNL1       -0.4444
      9 C           2.0541   27.9466   11.2471 C.2     1  UNL1        0.3177
     10 C           0.7660   28.4798   10.7039 C.3     1  UNL1        0.1212
     11 O           2.2151   26.7784   11.5747 O.2     1  UNL1       -0.2501
     12 O           2.9513   31.1973   10.2689 O.3     1  UNL1       -0.4444
     13 C           2.1222   32.0084    9.5577 C.2     1  UNL1        0.3177
     14 C           1.5791   31.2849    8.3636 C.3     1  UNL1        0.1212
     15 O           1.8237   33.1568    9.8495 O.2     1  UNL1       -0.2501
@<TRIPOS>BOND
     1     4     5    1
     2     5     6    2
     3     5     3    1
     4     3     2    1
     5     2     1    1
     6     1     7    1
     7     1    12    1
     8     7     8    1
     9     8     9    1
    10     9    10    1
    11     9    11    2
    12    12    13    1
    13    13    14    1
    14    13    15    2



#	Name:			CHEMBL1496
#	Creating user name:	trannguyen
#	Creation time:		Wed Dec  7 14:36:24 2022


#	Modifying user name:	trannguyen
#	Modification time:	Wed Dec  7 14:36:24 2022

@<TRIPOS>MOLECULE
CHEMBL1496
 36 37 0 0 0
SMALL
GASTEIGER

@<TRIPOS>ATOM
      1 C           9.0496   32.7817    9.1693 C.ar    1  UNL1        0.0629
      2 N           9.6103   33.8516    8.5673 N.ar    1  UNL1       -0.2168
      3 C           8.8796   34.9631    8.4900 C.ar    1  UNL1        0.2387
      4 N           7.6242   35.1074    8.8924 N.ar    1  UNL1       -0.2124
      5 C           7.0436   34.0393    9.4889 C.ar    1  UNL1        0.0853
      6 C           7.7301   32.8181    9.6512 C.ar    1  UNL1        0.0311
      7 C           5.6369   34.3200    9.9086 C.ar    1  UNL1        0.0179
      8 C           5.2923   34.8295   11.1757 C.ar    1  UNL1        0.0038
      9 C           3.9643   35.0575   11.5482 C.ar    1  UNL1        0.0297
     10 C           2.9506   34.8285   10.6337 C.ar    1  UNL1        0.1401
     11 F           1.6806   35.0620   10.9853 F       1  UNL1       -0.2042
     12 C           3.2423   34.3787    9.3560 C.ar    1  UNL1        0.0297
     13 C           4.5718   34.1227    9.0008 C.ar    1  UNL1        0.0038
     14 C           9.8190   30.7302    7.9182 C.3     1  UNL1        0.0063
     15 C           9.9303   31.5374    9.2150 C.3     1  UNL1        0.0404
     16 C          11.4064   31.8492    9.5200 C.3     1  UNL1        0.0063
     17 N           9.4765   36.0062    7.7675 N.pl3   1  UNL1       -0.1605
     18 C           9.8886   37.1498    8.5962 C.3     1  UNL1        0.1420
     19 S           8.6843   36.3901    6.3360 S.O2    1  UNL1        0.0611
     20 C           9.9850   36.8541    5.1978 C.3     1  UNL1        0.1999
     21 O           8.0634   35.1803    5.8061 O.2     1  UNL1       -0.1541
     22 O           7.8700   37.5554    6.5895 O.2     1  UNL1       -0.1541
     23 C           7.0650   31.6361   10.2222 C.2     1  UNL1        0.0005
     24 C           6.2491   30.8288    9.5191 C.2     1  UNL1        0.0027
     25 C           5.6697   29.5496   10.0665 C.3     1  UNL1        0.1349
     26 O           5.5479   29.6727   11.4752 O.3     1  UNL1       -0.3800
     27 H           6.4267   29.8839   11.8331 H       1  UNL1        0.2108
     28 C           4.2816   29.2460    9.4943 C.3     1  UNL1        0.0636
     29 C           3.1187   29.5998   10.4360 C.3     1  UNL1        0.1244
     30 O           2.9822   31.0342   10.4260 O.3     1  UNL1       -0.3838
     31 H           3.7669   31.3862   10.8928 H       1  UNL1        0.2104
     32 C           1.7812   29.0161    9.9927 C.3     1  UNL1        0.1385
     33 C           1.1341   28.2220   11.1024 C.2     1  UNL1        0.3163
     34 O           1.7341   27.8135   12.0812 O.2     1  UNL1       -0.2502
     35 O          -0.1740   27.9528   10.8805 O.3     1  UNL1       -0.4801
     36 H          -0.5080   28.4452   10.0936 H       1  UNL1        0.2951
@<TRIPOS>BOND
     1    14    15    1
     2    15    16    1
     3    15     1    1
     4     1     2   ar
     5     1     6   ar
     6     2     3   ar
     7     3    17    1
     8     3     4   ar
     9    17    18    1
    10    17    19    1
    11    19    20    1
    12    19    21    2
    13    19    22    2
    14     4     5   ar
    15     5     7    1
    16     5     6   ar
    17     7     8   ar
    18     7    13   ar
    19     8     9   ar
    20     9    10   ar
    21    10    11    1
    22    10    12   ar
    23    12    13   ar
    24     6    23    1
    25    23    24    2
    26    24    25    1
    27    25    26    1
    28    25    28    1
    29    26    27    1
    30    28    29    1
    31    29    30    1
    32    29    32    1
    33    30    31    1
    34    32    33    1
    35    33    34    2
    36    33    35    1
    37    35    36    1






#	Name:			CHEMBL1502
#	Creating user name:	trannguyen
#	Creation time:		Wed Dec  7 14:36:25 2022


#	Modifying user name:	trannguyen
#	Modification time:	Wed Dec  7 14:36:25 2022

@<TRIPOS>MOLECULE
CHEMBL1502
 27 29 0 0 0
SMALL
GASTEIGER

@<TRIPOS>ATOM
      1 C           3.5840   31.6281    4.9468 C.ar    1  UNL1        0.1864
      2 N           4.1391   31.0864    3.8856 N.ar    1  UNL1       -0.2200
      3 C           5.4089   31.6221    3.8340 C.ar    1  UNL1        0.1020
      4 C           6.4182   31.4531    2.8751 C.ar    1  UNL1        0.0577
      5 C           7.6354   32.1230    3.0423 C.ar    1  UNL1        0.1459
      6 C           7.8768   32.8687    4.2012 C.ar    1  UNL1        0.0387
      7 C           6.8740   33.0727    5.1627 C.ar    1  UNL1        0.0217
      8 C           5.6450   32.4554    4.9240 C.ar    1  UNL1        0.0762
      9 N           4.4448   32.4789    5.5866 N.ar    1  UNL1       -0.3313
     10 H           4.2051   33.0140    6.4110 H       1  UNL1        0.1679
     11 S           1.9464   31.3680    5.4897 S.3     1  UNL1        0.0397
     12 O           1.0624   32.2179    4.4973 O.3     1  UNL1       -0.1532
     13 C           2.0813   32.2332    7.0836 C.3     1  UNL1        0.1343
     14 C           2.9062   29.9111   10.0050 C.ar    1  UNL1        0.1752
     15 C           1.6142   29.4354   10.2538 C.ar    1  UNL1        0.0607
     16 C           0.5721   29.8887    9.4724 C.ar    1  UNL1        0.1018
     17 N           0.7246   30.7715    8.4679 N.ar    1  UNL1       -0.2440
     18 C           1.9679   31.2791    8.2552 C.ar    1  UNL1        0.1087
     19 C           3.0938   30.8984    9.0178 C.ar    1  UNL1        0.1867
     20 C           4.6349   28.2857   10.1898 C.3     1  UNL1        0.2526
     21 O           3.9826   29.4436   10.7132 O.3     1  UNL1       -0.4683
     22 O           4.2662   31.5193    8.6778 O.3     1  UNL1       -0.4671
     23 C           4.6921   32.6663    9.4028 C.3     1  UNL1        0.2527
     24 O           8.6538   32.1171    2.1250 O.3     1  UNL1       -0.4236
     25 C           8.2642   32.1509    0.7534 C.3     1  UNL1        0.5087
     26 F           7.6135   33.3122    0.5005 F       1  UNL1       -0.1550
     27 F           9.3443   32.0831   -0.0620 F       1  UNL1       -0.1550
@<TRIPOS>BOND
     1    20    21    1
     2    21    14    1
     3    14    15   ar
     4    14    19   ar
     5    15    16   ar
     6    16    17   ar
     7    17    18   ar
     8    18    13    1
     9    18    19   ar
    10    13    11    1
    11    11    12    1
    12    11     1    1
    13     1     2   ar
    14     1     9   ar
    15     2     3   ar
    16     3     4   ar
    17     3     8   ar
    18     4     5   ar
    19     5    24    1
    20     5     6   ar
    21    24    25    1
    22    25    26    1
    23    25    27    1
    24     6     7   ar
    25     7     8   ar
    26     8     9   ar
    27     9    10    1
    28    19    22    1
    29    22    23    1



#	Name:			CHEMBL1503
#	Creating user name:	trannguyen
#	Creation time:		Wed Dec  7 14:36:25 2022


#	Modifying user name:	trannguyen
#	Modification time:	Wed Dec  7 14:36:25 2022

@<TRIPOS>MOLECULE
CHEMBL1503
 25 27 0 0 0
SMALL
GASTEIGER

@<TRIPOS>ATOM
      1 S           7.8536   31.7407    1.9717 S.3     1  UNL1        0.0395
      2 O           7.4404   30.7162    0.8492 O.3     1  UNL1       -0.1532
      3 C           2.4672   32.2210    5.0953 C.ar    1  UNL1        0.1403
      4 C           2.5365   33.5600    4.6970 C.ar    1  UNL1        0.0385
      5 C           3.6280   34.0611    3.9811 C.ar    1  UNL1        0.0217
      6 C           4.6392   33.1534    3.6641 C.ar    1  UNL1        0.0762
      7 N           5.8172   33.2906    2.9707 N.ar    1  UNL1       -0.3313
      8 H           6.1713   34.1298    2.5456 H       1  UNL1        0.1679
      9 C           6.3999   32.0489    2.8842 C.ar    1  UNL1        0.1864
     10 N           5.6963   31.1469    3.5382 N.ar    1  UNL1       -0.2200
     11 C           4.5979   31.8138    4.0222 C.ar    1  UNL1        0.1020
     12 C           3.4973   31.3306    4.7556 C.ar    1  UNL1        0.0575
     13 C           1.6161   31.4406    7.1577 C.3     1  UNL1        0.2525
     14 O           1.4029   31.6734    5.7676 O.3     1  UNL1       -0.4714
     15 C           8.0992   33.4058    1.3101 C.3     1  UNL1        0.1308
     16 C           8.6330   33.4207   -0.1029 C.ar    1  UNL1        0.0708
     17 N           9.7638   32.6937   -0.2836 N.ar    1  UNL1       -0.2477
     18 C          10.3660   32.7437   -1.4906 C.ar    1  UNL1        0.0972
     19 C           9.9153   33.4737   -2.5850 C.ar    1  UNL1        0.0309
     20 C          10.7585   33.4528   -3.8240 C.3     1  UNL1        0.0358
     21 C           8.7356   34.2065   -2.3987 C.ar    1  UNL1        0.1333
     22 C           8.0713   34.1791   -1.1421 C.ar    1  UNL1        0.0263
     23 C           6.8411   35.0244   -0.9322 C.3     1  UNL1        0.0355
     24 O           8.1861   35.0796   -3.3069 O.3     1  UNL1       -0.4720
     25 C           7.5059   34.5501   -4.4352 C.3     1  UNL1        0.2524
@<TRIPOS>BOND
     1    13    14    1
     2    14     3    1
     3     3     4   ar
     4     3    12   ar
     5     4     5   ar
     6     5     6   ar
     7     6     7   ar
     8     6    11   ar
     9     7     8    1
    10     7     9   ar
    11     9     1    1
    12     9    10   ar
    13     1     2    1
    14     1    15    1
    15    15    16    1
    16    16    17   ar
    17    16    22   ar
    18    17    18   ar
    19    18    19   ar
    20    19    20    1
    21    19    21   ar
    22    21    24    1
    23    21    22   ar
    24    24    25    1
    25    22    23    1
    26    10    11   ar
    27    11    12   ar



#	Name:			CHEMBL1512
#	Creating user name:	trannguyen
#	Creation time:		Wed Dec  7 14:36:25 2022


#	Modifying user name:	trannguyen
#	Modification time:	Wed Dec  7 14:36:25 2022

@<TRIPOS>MOLECULE
CHEMBL1512
 33 37 0 0 0
SMALL
GASTEIGER

@<TRIPOS>ATOM
      1 C           0.6008   32.8696   10.0692 C.3     1  UNL1        0.0612
      2 C           1.7155   32.0833    9.3885 C.3     1  UNL1        0.1877
      3 C           1.3669   30.5973    9.3767 C.3     1  UNL1        0.0612
      4 O           1.8465   32.5461    8.0456 O.3     1  UNL1       -0.3339
      5 C           3.2017   32.9223    7.8722 C.3     1  UNL1        0.1491
      6 C           3.9863   31.8809    7.0922 C.3     1  UNL1        0.0326
      7 C           5.4280   32.0744    7.5830 C.3     1  UNL1        0.0055
      8 C           6.1362   33.2882    6.9188 C.3     1  UNL1        0.0062
      9 C           6.3182   33.1491    5.3948 C.3     1  UNL1        0.0397
     10 C           7.4471   32.2066    5.0070 C.3     1  UNL1        0.1797
     11 F           7.1383   30.9433    5.3976 F       1  UNL1       -0.2328
     12 C           8.7337   32.6633    5.6367 C.2     1  UNL1       -0.0059
     13 C           9.7711   32.9961    4.8468 C.2     1  UNL1        0.0364
     14 C          11.0172   33.5692    5.3896 C.2     1  UNL1        0.1949
     15 O          11.9623   33.8366    4.6637 O.2     1  UNL1       -0.2866
     16 C          11.0535   33.8392    6.8379 C.2     1  UNL1        0.0377
     17 C          10.0238   33.5089    7.6289 C.2     1  UNL1       -0.0196
     18 C           8.7399   32.8096    7.1666 C.3     1  UNL1        0.0386
     19 C           8.8224   31.4101    7.8050 C.3     1  UNL1        0.0086
     20 C           7.4881   33.6801    7.5878 C.3     1  UNL1        0.0343
     21 C           7.2573   33.9119    9.0955 C.3     1  UNL1        0.1111
     22 O           6.5229   35.1318    9.2306 O.3     1  UNL1       -0.3844
     23 C           6.4928   32.8054    9.8173 C.3     1  UNL1        0.0320
     24 C           5.2345   32.2197    9.1247 C.3     1  UNL1        0.0341
     25 C           5.0959   30.7931    9.7467 C.3     1  UNL1        0.0029
     26 C           3.8506   33.0058    9.2551 C.3     1  UNL1        0.1727
     27 O           2.9364   32.2816   10.1052 O.3     1  UNL1       -0.3297
     28 H           6.4406   35.3064   10.1911 H       1  UNL1        0.2103
     29 C           3.9192   34.4350    9.8465 C.2     1  UNL1        0.2065
     30 O           4.0297   35.4397    9.1284 O.2     1  UNL1       -0.2909
     31 C           3.8545   34.6173   11.3658 C.3     1  UNL1        0.2045
     32 O           5.0833   35.0659   11.9198 O.3     1  UNL1       -0.3749
     33 H           5.5077   35.6131   11.2315 H       1  UNL1        0.2110
@<TRIPOS>BOND
     1     1     2    1
     2     2     3    1
     3     2     4    1
     4     2    27    1
     5     4     5    1
     6     5     6    1
     7     5    26    1
     8     6     7    1
     9     7     8    1
    10     7    24    1
    11     8     9    1
    12     8    20    1
    13     9    10    1
    14    10    11    1
    15    10    12    1
    16    12    13    2
    17    12    18    1
    18    13    14    1
    19    14    15    2
    20    14    16    1
    21    16    17    2
    22    17    18    1
    23    18    19    1
    24    18    20    1
    25    20    21    1
    26    21    22    1
    27    21    23    1
    28    22    28    1
    29    23    24    1
    30    24    25    1
    31    24    26    1
    32    26    29    1
    33    26    27    1
    34    29    30    2
    35    29    31    1
    36    31    32    1
    37    32    33    1



#	Name:			CHEMBL151437
#	Creating user name:	trannguyen
#	Creation time:		Wed Dec  7 14:36:25 2022


#	Modifying user name:	trannguyen
#	Modification time:	Wed Dec  7 14:36:25 2022

@<TRIPOS>MOLECULE
CHEMBL151437
 33 33 0 0 0
SMALL
GASTEIGER

@<TRIPOS>ATOM
      1 C           6.5604   32.6758    4.6220 C.3     1  UNL1        0.0036
      2 C           5.9863   31.7903    3.5070 C.3     1  UNL1        0.0001
      3 C           4.7458   31.0057    3.8392 C.3     1  UNL1        0.0000
      4 C           3.7141   31.8521    4.5720 C.3     1  UNL1        0.0001
      5 C           3.2104   33.0161    3.7067 C.3     1  UNL1        0.0000
      6 C           4.2888   32.2596    5.9474 C.3     1  UNL1        0.0037
      7 C           5.6363   33.0424    5.8505 C.3     1  UNL1        0.0439
      8 C           7.1020   33.9643    3.9514 C.3     1  UNL1        0.0001
      9 C           7.4806   34.5391    1.5164 C.3     1  UNL1        0.0000
     10 C           7.9596   33.7196    2.7062 C.3     1  UNL1        0.0000
     11 C           3.2210   32.9882    6.8203 C.3     1  UNL1        0.0026
     12 C           2.7387   32.0889    7.9725 C.3     1  UNL1        0.0293
     13 C           1.2785   31.6356    7.9076 C.3     1  UNL1        0.1130
     14 O           1.1513   30.6713    6.8593 O.3     1  UNL1       -0.3844
     15 H           1.5539   31.0399    6.0531 H       1  UNL1        0.2103
     16 C           0.7748   30.9760    9.1905 C.3     1  UNL1        0.0590
     17 C           1.8624   30.1771    9.9375 C.3     1  UNL1        0.1241
     18 O           1.8869   30.6212   11.3062 O.3     1  UNL1       -0.3838
     19 H           1.8747   31.5993   11.2941 H       1  UNL1        0.2104
     20 C           1.5726   28.6709    9.9143 C.3     1  UNL1        0.1385
     21 C           2.3635   27.8576   10.9124 C.2     1  UNL1        0.3163
     22 O           3.3659   27.2643   10.6177 O.2     1  UNL1       -0.2502
     23 O           1.8210   27.7268   12.1230 O.3     1  UNL1       -0.4801
     24 H           0.9467   28.2141   12.1917 H       1  UNL1        0.2951
     25 C           6.4433   32.8714    7.1867 C.3     1  UNL1        0.2083
     26 O           7.4437   31.8423    7.0219 O.3     1  UNL1       -0.4485
     27 C           8.7385   32.1325    7.3445 C.2     1  UNL1        0.3159
     28 O           9.5172   32.7262    6.6077 O.2     1  UNL1       -0.2501
     29 C           9.1340   31.5032    8.6974 C.3     1  UNL1        0.0896
     30 C           7.8779   30.9391    9.4000 C.3     1  UNL1        0.0111
     31 C          10.1321   30.3433    8.5115 C.3     1  UNL1        0.0111
     32 C           9.6726   32.5997    9.6541 C.3     1  UNL1        0.0106
     33 C           8.8386   33.8517    9.8191 C.3     1  UNL1        0.0006
@<TRIPOS>BOND
     1     9    10    1
     2    10     8    1
     3     1     2    1
     4     1     7    1
     5     1     8    1
     6     2     3    1
     7     3     4    1
     8     4     5    1
     9     4     6    1
    10     6    11    1
    11     6     7    1
    12    11    12    1
    13    12    13    1
    14    13    14    1
    15    13    16    1
    16    14    15    1
    17    16    17    1
    18    17    18    1
    19    17    20    1
    20    18    19    1
    21    20    21    1
    22    21    22    2
    23    21    23    1
    24    23    24    1
    25     7    25    1
    26    25    26    1
    27    26    27    1
    28    27    28    2
    29    27    29    1
    30    29    30    1
    31    29    31    1
    32    29    32    1
    33    32    33    1






#	Name:			CHEMBL1515
#	Creating user name:	trannguyen
#	Creation time:		Wed Dec  7 14:36:25 2022


#	Modifying user name:	trannguyen
#	Modification time:	Wed Dec  7 14:36:25 2022

@<TRIPOS>MOLECULE
CHEMBL1515
 8 8 0 0 0
SMALL
GASTEIGER

@<TRIPOS>ATOM
      1 C           4.6554   29.0328   10.1661 C.3     1  UNL1        0.1325
      2 N           3.2348   29.0380   10.4202 N.ar    1  UNL1       -0.3042
      3 C           2.5312   27.9935   10.9880 C.ar    1  UNL1        0.0961
      4 C           1.2403   28.3388   11.0816 C.ar    1  UNL1        0.0928
      5 N           1.0858   29.6055   10.5789 N.ar    1  UNL1       -0.3319
      6 H           0.2235   30.1280   10.5199 H       1  UNL1        0.1679
      7 C           2.3320   30.0882   10.1461 C.ar    1  UNL1        0.1596
      8 S           2.5943   31.5740    9.4742 S.2     1  UNL1       -0.0128
@<TRIPOS>BOND
     1     1     2    1
     2     2     3   ar
     3     2     7   ar
     4     3     4   ar
     5     4     5   ar
     6     5     6    1
     7     5     7   ar
     8     7     8    2



#	Name:			CHEMBL153062
#	Creating user name:	trannguyen
#	Creation time:		Wed Dec  7 14:36:25 2022


#	Modifying user name:	trannguyen
#	Modification time:	Wed Dec  7 14:36:25 2022

@<TRIPOS>MOLECULE
CHEMBL153062
 17 17 0 0 0
SMALL
GASTEIGER

@<TRIPOS>ATOM
      1 C           3.5133   31.2985    8.6540 C.3     1  UNL1        0.0264
      2 C           3.2000   30.0555    9.4610 C.ar    1  UNL1       -0.0220
      3 C           4.1476   29.0383    9.6854 C.ar    1  UNL1       -0.0012
      4 C           3.7984   27.8462   10.3172 C.ar    1  UNL1        0.0363
      5 C           2.5132   27.6893   10.8071 C.ar    1  UNL1        0.1337
      6 O           2.1406   26.5253   11.4228 O.3     1  UNL1       -0.5055
      7 C           1.5788   28.7043   10.6870 C.ar    1  UNL1        0.0363
      8 C           1.9157   29.8838   10.0063 C.ar    1  UNL1       -0.0012
      9 H           2.8782   25.8965   11.3677 H       1  UNL1        0.2922
     10 C           2.4001   31.8721    7.7522 C.3     1  UNL1        0.0047
     11 C           2.0536   30.9793    6.5507 C.3     1  UNL1        0.0003
     12 C           2.0131   31.7111    5.2082 C.3     1  UNL1        0.0000
     13 C           2.9468   31.1316    4.1449 C.3     1  UNL1        0.0000
     14 C           4.1350   32.0539    3.8258 C.3     1  UNL1        0.0000
     15 C           5.4869   31.3344    3.8829 C.3     1  UNL1        0.0000
     16 C           5.6907   32.7489    5.9500 C.3     1  UNL1        0.0000
     17 C           6.4507   31.9694    4.8843 C.3     1  UNL1        0.0000
@<TRIPOS>BOND
     1    16    17    1
     2    17    15    1
     3    15    14    1
     4    14    13    1
     5    13    12    1
     6    12    11    1
     7    11    10    1
     8    10     1    1
     9     1     2    1
    10     2     3   ar
    11     2     8   ar
    12     3     4   ar
    13     4     5   ar
    14     5     6    1
    15     5     7   ar
    16     6     9    1
    17     7     8   ar



#	Name:			CHEMBL153479
#	Creating user name:	trannguyen
#	Creation time:		Wed Dec  7 14:36:25 2022


#	Modifying user name:	trannguyen
#	Modification time:	Wed Dec  7 14:36:25 2022

@<TRIPOS>MOLECULE
CHEMBL153479
 22 23 0 0 0
SMALL
GASTEIGER

@<TRIPOS>ATOM
      1 N           2.0020   31.6310    6.4329 N.pl3   1  UNL1       -0.3568
      2 C           3.3006   32.0814    6.1092 C.ar    1  UNL1        0.0451
      3 C           3.6969   32.2200    4.7603 C.ar    1  UNL1        0.0477
      4 BR          2.4348   32.0410    3.3481 Br      1  UNL1       -0.0477
      5 C           5.0179   32.5139    4.4239 C.ar    1  UNL1        0.0146
      6 C           5.9688   32.6344    5.4242 C.ar    1  UNL1        0.0349
      7 BR          7.7689   32.9981    4.9781 Br      1  UNL1       -0.0490
      8 C           5.6147   32.4606    6.7649 C.ar    1  UNL1        0.0050
      9 C           4.2831   32.1720    7.1152 C.ar    1  UNL1        0.0075
     10 H           1.3155   31.8591    5.7244 H       1  UNL1        0.1424
     11 H           1.7298   31.9632    7.3635 H       1  UNL1        0.1424
     12 C           3.9727   31.8754    8.5708 C.3     1  UNL1        0.0968
     13 N           3.4356   30.5186    8.7847 N.3     1  UNL1       -0.2948
     14 H           2.4887   30.4934    8.4030 H       1  UNL1        0.1235
     15 C           3.3744   30.1799   10.2252 C.3     1  UNL1        0.0544
     16 C           1.9420   29.7892   10.6395 C.3     1  UNL1        0.0182
     17 C           1.4711   28.4852    9.9872 C.3     1  UNL1        0.0306
     18 C           2.4517   27.3308   10.2079 C.3     1  UNL1        0.1106
     19 O           2.3617   26.8921   11.5636 O.3     1  UNL1       -0.3845
     20 C           3.9053   27.7083    9.9283 C.3     1  UNL1        0.0306
     21 C           4.3086   29.0194   10.6059 C.3     1  UNL1        0.0182
     22 H           1.5363   26.3837   11.6455 H       1  UNL1        0.2103
@<TRIPOS>BOND
     1     1     2    1
     2     1    10    1
     3     1    11    1
     4     2     3   ar
     5     2     9   ar
     6     3     4    1
     7     3     5   ar
     8     5     6   ar
     9     6     7    1
    10     6     8   ar
    11     8     9   ar
    12     9    12    1
    13    12    13    1
    14    13    14    1
    15    15    16    1
    16    15    21    1
    17    15    13    1
    18    16    17    1
    19    17    18    1
    20    18    19    1
    21    18    20    1
    22    19    22    1
    23    20    21    1



#	Name:			CHEMBL1537
#	Creating user name:	trannguyen
#	Creation time:		Wed Dec  7 14:36:25 2022


#	Modifying user name:	trannguyen
#	Modification time:	Wed Dec  7 14:36:25 2022

@<TRIPOS>MOLECULE
CHEMBL1537
 36 39 0 0 0
SMALL
GASTEIGER

@<TRIPOS>ATOM
      1 N           5.2989   32.7890    8.9990 N.am    1  UNL1       -0.2947
      2 C           4.1476   33.3788    8.4949 C.2     1  UNL1        0.2451
      3 O           4.0377   34.6059    8.5099 O.2     1  UNL1       -0.2729
      4 H           5.4708   31.8052    8.8117 H       1  UNL1        0.1500
      5 C           8.9970   31.3413    7.2781 C.3     1  UNL1        0.0131
      6 C           9.3831   31.6797    8.7271 C.3     1  UNL1        0.0679
      7 C          10.5333   30.7593    9.1539 C.3     1  UNL1        0.0131
      8 S           7.9430   31.2294    9.7924 S.3     1  UNL1       -0.1185
      9 C           7.5531   32.9218   10.3164 C.3     1  UNL1        0.1509
     10 CA          6.3322   33.6259    9.6510 C.3     1  UNL1        0.1777
     11 C           7.4015   34.2576    8.7100 C.2     1  UNL1        0.2471
     12 O           7.4071   34.7909    7.6357 O.2     1  UNL1       -0.2730
     13 N           8.4348   33.7945    9.5207 N.am    1  UNL1       -0.2597
     14 CA          9.6296   33.2036    8.8880 C.3     1  UNL1        0.1843
     15 C          10.8814   33.5795    9.6962 C.2     1  UNL1        0.3329
     16 O          11.9598   33.8714    9.2030 O.2     1  UNL1       -0.2484
     17 OXT        10.6828   33.5908   11.0371 O.3     1  UNL1       -0.4790
     18 HXT         9.7428   33.4155   11.2403 H       1  UNL1        0.2951
     19 CA          3.1411   32.4202    7.7900 C.3     1  UNL1        0.1727
     20 N           3.0759   31.2206    8.6156 N.am    1  UNL1       -0.2787
     21 C           1.9038   30.6418    9.0102 C.2     1  UNL1        0.3115
     22 O           0.8082   31.0910    8.6781 O.2     1  UNL1       -0.2521
     23 N           2.0333   29.5423    9.8441 N.am    1  UNL1       -0.1969
     24 C           0.8744   28.8301   10.3451 C.3     1  UNL1        0.1253
     25 C           1.4311   27.9697   11.4670 C.3     1  UNL1        0.1130
     26 N           2.8191   27.8443   11.1253 N.am    1  UNL1       -0.2867
     27 C           3.2014   28.8880   10.2852 C.2     1  UNL1        0.3110
     28 O           4.3577   29.1816   10.0325 O.2     1  UNL1       -0.2521
     29 H           3.9507   30.8205    8.9565 H       1  UNL1        0.1517
     30 H           3.5188   27.3631   11.6769 H       1  UNL1        0.1510
     31 C           3.5274   32.1285    6.3419 C.ar    1  UNL1        0.0043
     32 C           4.7897   32.5062    5.8452 C.ar    1  UNL1       -0.0022
     33 C           5.2091   32.1140    4.5669 C.ar    1  UNL1       -0.0003
     34 C           4.3814   31.3235    3.7736 C.ar    1  UNL1       -0.0000
     35 C           3.1100   30.9848    4.2289 C.ar    1  UNL1       -0.0003
     36 C           2.6746   31.4092    5.4890 C.ar    1  UNL1       -0.0022
@<TRIPOS>BOND
     1     5     6    1
     2     6     7    1
     3     6     8    1
     4     6    14    1
     5     8     9    1
     6     9    10    1
     7     9    13    1
     8    10    11    1
     9    10     1    1
    10     1     2   am
    11     1     4    1
    12     2     3    2
    13    19    20    1
    14    19    31    1
    15    19     2    1
    16    20    21   am
    17    20    29    1
    18    21    22    2
    19    21    23   am
    20    23    24    1
    21    23    27   am
    22    24    25    1
    23    25    26    1
    24    26    27   am
    25    26    30    1
    26    27    28    2
    27    31    32   ar
    28    31    36   ar
    29    32    33   ar
    30    33    34   ar
    31    34    35   ar
    32    35    36   ar
    33    11    12    2
    34    11    13   am
    35    13    14    1
    36    14    15    1
    37    15    16    2
    38    15    17    1
    39    17    18    1



#	Name:			CHEMBL1539
#	Creating user name:	trannguyen
#	Creation time:		Wed Dec  7 14:36:25 2022


#	Modifying user name:	trannguyen
#	Modification time:	Wed Dec  7 14:36:25 2022

@<TRIPOS>MOLECULE
CHEMBL1539
 24 25 0 0 0
SMALL
GASTEIGER

@<TRIPOS>ATOM
      1 N           3.3786   32.8233    7.4235 N.pl3   1  UNL1       -0.1963
      2 H           3.6607   33.7913    7.5688 H       1  UNL1        0.1754
      3 C           5.0603   32.0573    4.2848 C.ar    1  UNL1        0.2645
      4 N           4.1794   31.1750    3.7591 N.ar    1  UNL1       -0.1866
      5 C           3.0830   30.9176    4.4798 C.ar    1  UNL1        0.2029
      6 N           2.7898   31.4463    5.6667 N.ar    1  UNL1       -0.2044
      7 C           3.6926   32.3228    6.1317 C.ar    1  UNL1        0.1877
      8 C           4.8743   32.6896    5.5003 C.ar    1  UNL1        0.2247
      9 C           6.0471   33.4442    2.6626 C.3     1  UNL1        0.2543
     10 O           6.1899   32.3358    3.5449 O.3     1  UNL1       -0.4540
     11 O           5.6486   33.6028    6.1549 O.3     1  UNL1       -0.4644
     12 C           6.9559   33.2142    6.5538 C.3     1  UNL1        0.2528
     13 S           4.0044   31.8933    8.6843 S.O2    1  UNL1        0.0748
     14 O           5.0399   31.0248    8.1706 O.2     1  UNL1       -0.1499
     15 O           4.2861   32.8197    9.7647 O.2     1  UNL1       -0.1499
     16 C           2.6274   30.9029    9.1999 C.ar    1  UNL1        0.1253
     17 C           1.3347   31.2691    8.8201 C.ar    1  UNL1        0.0214
     18 C           0.2548   30.4702    9.2013 C.ar    1  UNL1        0.0155
     19 C           0.4490   29.3365    9.9968 C.ar    1  UNL1        0.0416
     20 N          -0.6229   28.4755   10.2604 N.pl3   1  UNL1       -0.3570
     21 C           1.7560   28.9536   10.3197 C.ar    1  UNL1        0.0155
     22 C           2.8473   29.7396    9.9377 C.ar    1  UNL1        0.0214
     23 H          -1.5273   28.9366   10.2685 H       1  UNL1        0.1424
     24 H          -0.4845   27.8852   11.0744 H       1  UNL1        0.1424
@<TRIPOS>BOND
     1     9    10    1
     2    10     3    1
     3     3     4   ar
     4     3     8   ar
     5     4     5   ar
     6     5     6   ar
     7     6     7   ar
     8     7     1    1
     9     7     8   ar
    10     1    13    1
    11     1     2    1
    12    13    14    2
    13    13    15    2
    14    13    16    1
    15    16    17   ar
    16    16    22   ar
    17    17    18   ar
    18    18    19   ar
    19    19    20    1
    20    19    21   ar
    21    20    23    1
    22    20    24    1
    23    21    22   ar
    24     8    11    1
    25    11    12    1



#	Name:			CHEMBL1540
#	Creating user name:	trannguyen
#	Creation time:		Wed Dec  7 14:36:25 2022


#	Modifying user name:	trannguyen
#	Modification time:	Wed Dec  7 14:36:25 2022

@<TRIPOS>MOLECULE
CHEMBL1540
 23 24 0 0 0
SMALL
GASTEIGER

@<TRIPOS>ATOM
      1 N          -0.5345   29.7219    9.8445 N.pl3   1  UNL1       -0.3273
      2 C           0.7616   29.2736   10.0376 C.ar    1  UNL1        0.2176
      3 N           0.8858   28.0991   10.6797 N.ar    1  UNL1       -0.1778
      4 C           2.1317   27.6668   10.9524 C.ar    1  UNL1        0.2452
      5 O           2.1940   26.4697   11.6104 O.3     1  UNL1       -0.4908
      6 C           3.2445   28.4203   10.6039 C.ar    1  UNL1        0.1699
      7 N           4.6028   28.2706   10.7891 N.ar    1  UNL1       -0.2175
      8 C           5.1366   29.3456   10.2480 C.ar    1  UNL1        0.1798
      9 N           4.1889   30.1627    9.6900 N.ar    1  UNL1       -0.2943
     10 C           2.9663   29.6034    9.9418 C.ar    1  UNL1        0.1703
     11 N           1.7479   30.0872    9.6299 N.ar    1  UNL1       -0.1948
     12 H          -1.1383   29.3019   10.5352 H       1  UNL1        0.1452
     13 H          -0.5376   30.7294    9.7888 H       1  UNL1        0.1452
     14 H           1.2510   26.2511   11.6854 H       1  UNL1        0.2938
     15 C           4.4438   31.4072    8.9898 C.3     1  UNL1        0.1092
     16 C           3.9465   31.3640    7.5414 C.3     1  UNL1        0.0296
     17 C           3.0094   32.5319    7.1554 C.3     1  UNL1        0.0606
     18 C           1.8599   32.0317    6.2630 C.3     1  UNL1        0.1396
     19 O           1.3464   30.8106    6.7817 O.3     1  UNL1       -0.3819
     20 H           0.5841   30.5663    6.2268 H       1  UNL1        0.2104
     21 C           2.4449   33.2484    8.3882 C.3     1  UNL1        0.1396
     22 O           1.1434   32.7764    8.7139 O.3     1  UNL1       -0.3819
     23 H           0.6221   32.7181    7.8943 H       1  UNL1        0.2104
@<TRIPOS>BOND
     1     1     2    1
     2     1    12    1
     3     1    13    1
     4     2     3   ar
     5     2    11   ar
     6     3     4   ar
     7     4     5    1
     8     4     6   ar
     9     5    14    1
    10     6     7   ar
    11     6    10   ar
    12     7     8   ar
    13     8     9   ar
    14     9    15    1
    15     9    10   ar
    16    15    16    1
    17    16    17    1
    18    17    18    1
    19    17    21    1
    20    18    19    1
    21    19    20    1
    22    21    22    1
    23    22    23    1
    24    10    11   ar



#	Name:			CHEMBL15511
#	Creating user name:	trannguyen
#	Creation time:		Wed Dec  7 14:36:25 2022


#	Modifying user name:	trannguyen
#	Modification time:	Wed Dec  7 14:36:25 2022

@<TRIPOS>MOLECULE
CHEMBL15511
 27 30 0 0 0
SMALL
GASTEIGER

@<TRIPOS>ATOM
      1 C           5.5301   32.5143    4.6405 C.ar    1  UNL1        0.0772
      2 C           5.8430   32.3681    6.0116 C.ar    1  UNL1        0.0341
      3 C           4.8736   32.1716    7.0130 C.ar    1  UNL1        0.0643
      4 C           3.5374   32.0378    6.6124 C.ar    1  UNL1        0.0573
      5 C           3.1830   32.1154    5.2688 C.ar    1  UNL1        0.0355
      6 C           4.1653   32.3612    4.3108 C.ar    1  UNL1        0.1535
      7 F           3.7350   32.4689    3.0441 F       1  UNL1       -0.2029
      8 C           2.4872   31.8164    7.6329 C.ar    1  UNL1        0.2047
      9 O           1.2987   31.7482    7.3288 O.2     1  UNL1       -0.2862
     10 C           2.8982   31.6765    9.0456 C.ar    1  UNL1        0.1314
     11 C           4.2045   31.8202    9.3167 C.ar    1  UNL1        0.0855
     12 N           5.1968   32.1103    8.3975 N.ar    1  UNL1       -0.3276
     13 N           8.4095   33.2203    1.4118 N.3     1  UNL1       -0.2698
     14 C           8.0404   34.2597    2.3983 C.3     1  UNL1        0.0938
     15 C           6.6617   34.0692    3.0792 C.3     1  UNL1        0.1082
     16 N           6.5583   32.7268    3.7035 N.pl3   1  UNL1       -0.3029
     17 C           6.9089   31.6340    2.7649 C.3     1  UNL1        0.1082
     18 C           8.2636   31.9039    2.0671 C.3     1  UNL1        0.0938
     19 C           7.9025   32.2786   -0.8554 C.3     1  UNL1        0.0188
     20 C           7.6363   33.3726    0.1732 C.3     1  UNL1        0.0722
     21 C           1.9560   31.4183   10.1545 C.2     1  UNL1        0.3427
     22 O           2.1432   30.5722   11.0097 O.2     1  UNL1       -0.2449
     23 O           0.8610   32.2092   10.1495 O.3     1  UNL1       -0.4770
     24 H           0.8343   32.8613    9.4055 H       1  UNL1        0.2954
     25 C           6.5611   32.3555    8.9052 C.3     1  UNL1        0.0856
     26 C           6.9971   31.9332   10.2884 C.3     1  UNL1        0.0245
     27 C           7.5410   31.2187    9.0939 C.3     1  UNL1        0.0245
@<TRIPOS>BOND
     1    19    20    1
     2    20    13    1
     3    13    14    1
     4    13    18    1
     5    14    15    1
     6    15    16    1
     7    16     1    1
     8    16    17    1
     9     1     2   ar
    10     1     6   ar
    11     2     3   ar
    12     3     4   ar
    13     3    12   ar
    14     4     5   ar
    15     4     8   ar
    16     5     6   ar
    17     6     7    1
    18     8     9    2
    19     8    10   ar
    20    10    21    1
    21    10    11   ar
    22    21    22    2
    23    21    23    1
    24    23    24    1
    25    11    12   ar
    26    12    25    1
    27    25    26    1
    28    25    27    1
    29    26    27    1
    30    17    18    1



#	Name:			CHEMBL1554
#	Creating user name:	trannguyen
#	Creation time:		Wed Dec  7 14:36:25 2022


#	Modifying user name:	trannguyen
#	Modification time:	Wed Dec  7 14:36:25 2022

@<TRIPOS>MOLECULE
CHEMBL1554
 96 102 0 0 0
SMALL
GASTEIGER

@<TRIPOS>ATOM
      1 C           7.5143   31.7375    4.1582 C.3     1  UNL1        0.0377
      2 C           7.6870   32.5449    2.9035 C.ar    1  UNL1        0.0543
      3 C           8.0649   33.8247    2.8632 C.ar    1  UNL1        0.1621
      4 O           8.3366   34.4820    4.0466 O.2     1  UNL1       -0.4510
      5 C           9.3013   35.4605    3.9921 C.ar    1  UNL1        0.1589
      6 C           9.9217   35.7762    5.2152 C.ar    1  UNL1        0.0142
      7 C           9.6553   34.9779    6.4622 C.3     1  UNL1        0.0343
      8 C          10.8976   36.7678    5.2248 C.ar    1  UNL1       -0.0010
      9 C          11.2590   37.3986    4.0344 C.ar    1  UNL1        0.0059
     10 C          10.6951   37.0192    2.7944 C.ar    1  UNL1        0.0739
     11 C           9.6687   36.0528    2.7628 C.ar    1  UNL1        0.1198
     12 N           9.0784   35.6045    1.5532 N.ar    1  UNL1       -0.2389
     13 C           8.3258   34.5428    1.5762 C.ar    1  UNL1        0.1212
     14 C           7.7749   33.9142    0.3164 C.ar    1  UNL1        0.0899
     15 C           7.5848   32.5776    0.3294 C.ar    1  UNL1        0.0867
     16 N           7.3476   31.7387   -0.7787 N.pl3   1  UNL1       -0.3544
     17 C           7.5472   31.8241    1.6340 C.ar    1  UNL1        0.2076
     18 O           7.3355   30.6112    1.6107 O.2     1  UNL1       -0.2855
     19 H           6.7826   30.9495   -0.4250 H       1  UNL1        0.1424
     20 H           8.2334   31.2412   -0.9505 H       1  UNL1        0.1424
     21 C          11.2517   37.6714    1.5652 C.2     1  UNL1        0.2478
     22 O          11.1030   38.8756    1.3254 O.2     1  UNL1       -0.2701
     23 N          11.9854   36.8488    0.7299 N.am    1  UNL1       -0.2919
     24 H          11.8156   35.8512    0.7743 H       1  UNL1        0.1502
     25 C          12.6404   37.3419   -0.4946 C.3     1  UNL1        0.1892
     26 C          13.1858   36.1266   -1.2717 C.2     1  UNL1        0.2443
     27 O          13.9927   35.3581   -0.7474 O.2     1  UNL1       -0.2732
     28 N          12.6194   35.9215   -2.5149 N.am    1  UNL1       -0.2969
     29 C          13.0844   34.9433   -3.5289 C.3     1  UNL1        0.1487
     30 C          14.0993   35.7295   -4.4181 C.2     1  UNL1        0.2438
     31 O          14.8589   36.5834   -3.9450 O.2     1  UNL1       -0.2731
     32 N          14.0252   35.5719   -5.7911 N.am    1  UNL1       -0.2717
     33 C          13.5872   34.4120   -6.5523 C.3     1  UNL1        0.0939
     34 C          13.6703   34.8107   -8.0196 C.3     1  UNL1        0.0237
     35 C          14.6713   35.9615   -8.0249 C.3     1  UNL1        0.0310
     36 C          14.4473   36.6558   -6.6769 C.3     1  UNL1        0.1521
     37 C          13.2766   37.6745   -6.8041 C.2     1  UNL1        0.2441
     38 O          12.1893   37.2983   -7.2635 O.2     1  UNL1       -0.2731
     39 N          13.4585   39.0034   -6.4439 N.am    1  UNL1       -0.2682
     40 C          12.3236   39.8964   -6.6528 C.3     1  UNL1        0.1154
     41 C          14.5105   39.5043   -5.5460 C.3     1  UNL1        0.1794
     42 C          14.0194   39.8647   -4.1259 C.2     1  UNL1        0.2463
     43 O          13.0081   39.3306   -3.6709 O.2     1  UNL1       -0.2730
     44 N          14.7662   40.8271   -3.4304 N.am    1  UNL1       -0.2683
     45 C          16.1421   41.1467   -3.8005 C.3     1  UNL1        0.1154
     46 C          14.2830   41.4636   -2.1652 C.3     1  UNL1        0.1746
     47 C          14.2704   40.5498   -0.9285 C.2     1  UNL1        0.3352
     48 O          14.5161   40.9534    0.2046 O.2     1  UNL1       -0.2483
     49 O          13.8753   39.2930   -1.2243 O.3     1  UNL1       -0.4489
     50 C          13.7509   38.3636   -0.1336 C.3     1  UNL1        0.1956
     51 C          15.1471   37.8112    0.1445 C.3     1  UNL1        0.0497
     52 H          12.0768   36.6982   -2.8839 H       1  UNL1        0.1499
     53 C          13.5252   33.5780   -2.9400 C.3     1  UNL1        0.0269
     54 C          14.9481   33.1498   -3.2893 C.3     1  UNL1        0.0022
     55 C          12.5756   32.4622   -3.4134 C.3     1  UNL1        0.0022
     56 C          13.0068   42.3518   -2.2899 C.3     1  UNL1        0.0292
     57 C          13.2494   43.7791   -1.7715 C.3     1  UNL1        0.0023
     58 C          11.7550   41.8142   -1.6036 C.3     1  UNL1        0.0023
     59 C           7.4776   34.7688   -0.9040 C.2     1  UNL1        0.2491
     60 O           6.9638   34.2674   -1.9006 O.2     1  UNL1       -0.2700
     61 N           7.9046   36.0790   -0.9024 N.am    1  UNL1       -0.2919
     62 H           8.5443   36.3383   -0.1505 H       1  UNL1        0.1502
     63 C           7.8135   37.0136   -2.0653 C.3     1  UNL1        0.1892
     64 C           8.4070   36.2526   -3.2819 C.2     1  UNL1        0.2443
     65 O           9.5936   35.9290   -3.3387 O.2     1  UNL1       -0.2732
     66 N           7.4688   35.8055   -4.2134 N.am    1  UNL1       -0.2969
     67 C           7.8843   35.1562   -5.4959 C.3     1  UNL1        0.1487
     68 C           8.5101   36.3182   -6.3550 C.2     1  UNL1        0.2438
     69 O           8.7716   37.4151   -5.8359 O.2     1  UNL1       -0.2731
     70 N           8.5862   36.2465   -7.7291 N.am    1  UNL1       -0.2717
     71 C           8.6100   35.1190   -8.6390 C.3     1  UNL1        0.0939
     72 C           8.5381   35.6902  -10.0489 C.3     1  UNL1        0.0237
     73 C           8.9788   37.1369   -9.8804 C.3     1  UNL1        0.0310
     74 C           8.5134   37.5022   -8.4723 C.3     1  UNL1        0.1521
     75 C           7.0169   37.9341   -8.4774 C.2     1  UNL1        0.2441
     76 O           6.1571   37.1323   -8.8712 O.2     1  UNL1       -0.2731
     77 N           6.6494   39.2067   -8.0656 N.am    1  UNL1       -0.2682
     78 C           5.2382   39.5574   -8.1565 C.3     1  UNL1        0.1154
     79 C           7.4968   40.1374   -7.3112 C.3     1  UNL1        0.1794
     80 C           7.2447   40.2910   -5.7826 C.2     1  UNL1        0.2463
     81 O           6.4425   39.5776   -5.1814 O.2     1  UNL1       -0.2730
     82 N           7.9849   41.3103   -5.1536 N.am    1  UNL1       -0.2683
     83 C           8.7030   42.3009   -5.9577 C.3     1  UNL1        0.1154
     84 C           7.7592   41.6592   -3.7182 C.3     1  UNL1        0.1746
     85 C           8.1078   40.6401   -2.5857 C.2     1  UNL1        0.3352
     86 O           8.3107   41.0356   -1.4379 O.2     1  UNL1       -0.2483
     87 O           8.1856   39.3269   -2.9400 O.3     1  UNL1       -0.4489
     88 C           8.5003   38.3981   -1.8473 C.3     1  UNL1        0.1956
     89 C          10.0171   38.3381   -1.6371 C.3     1  UNL1        0.0497
     90 H           6.6363   36.3817   -4.2783 H       1  UNL1        0.1499
     91 C           8.6011   33.7981   -5.2315 C.3     1  UNL1        0.0269
     92 C          10.0514   33.7009   -5.6855 C.3     1  UNL1        0.0022
     93 C           7.8592   32.6471   -5.9434 C.3     1  UNL1        0.0022
     94 C           6.4639   42.5168   -3.4820 C.3     1  UNL1        0.0292
     95 C           6.7430   43.9275   -2.9449 C.3     1  UNL1        0.0023
     96 C           5.4066   41.8744   -2.5864 C.3     1  UNL1        0.0023
@<TRIPOS>BOND
     1     1     2    1
     2     2     3   ar
     3     2    17   ar
     4     3     4   ar
     5     3    13    1
     6     4     5   ar
     7     5     6   ar
     8     5    11   ar
     9     6     7    1
    10     6     8   ar
    11     8     9   ar
    12     9    10   ar
    13    10    21    1
    14    10    11   ar
    15    21    22    2
    16    21    23   am
    17    23    24    1
    18    25    26    1
    19    25    50    1
    20    25    23    1
    21    26    28   am
    22    26    27    2
    23    28    29    1
    24    28    52    1
    25    29    30    1
    26    29    53    1
    27    53    54    1
    28    53    55    1
    29    30    32   am
    30    30    31    2
    31    32    33    1
    32    32    36    1
    33    33    34    1
    34    34    35    1
    35    35    36    1
    36    36    37    1
    37    37    39   am
    38    37    38    2
    39    39    41    1
    40    39    40    1
    41    41    42    1
    42    42    44   am
    43    42    43    2
    44    44    46    1
    45    44    45    1
    46    46    47    1
    47    46    56    1
    48    56    57    1
    49    56    58    1
    50    47    49    1
    51    47    48    2
    52    49    50    1
    53    50    51    1
    54    11    12   ar
    55    12    13   ar
    56    13    14   ar
    57    14    59    1
    58    14    15   ar
    59    59    60    2
    60    59    61   am
    61    61    62    1
    62    63    64    1
    63    63    88    1
    64    63    61    1
    65    64    66   am
    66    64    65    2
    67    66    67    1
    68    66    90    1
    69    67    68    1
    70    67    91    1
    71    91    92    1
    72    91    93    1
    73    68    70   am
    74    68    69    2
    75    70    71    1
    76    70    74    1
    77    71    72    1
    78    72    73    1
    79    73    74    1
    80    74    75    1
    81    75    77   am
    82    75    76    2
    83    77    79    1
    84    77    78    1
    85    79    80    1
    86    80    82   am
    87    80    81    2
    88    82    84    1
    89    82    83    1
    90    84    85    1
    91    84    94    1
    92    94    95    1
    93    94    96    1
    94    85    87    1
    95    85    86    2
    96    87    88    1
    97    88    89    1
    98    15    16    1
    99    15    17   ar
   100    16    19    1
   101    16    20    1
   102    17    18    2



#	Name:			CHEMBL1566249
#	Creating user name:	trannguyen
#	Creation time:		Wed Dec  7 14:36:25 2022


#	Modifying user name:	trannguyen
#	Modification time:	Wed Dec  7 14:36:25 2022

@<TRIPOS>MOLECULE
CHEMBL1566249
 32 34 0 0 0
SMALL
GASTEIGER

@<TRIPOS>ATOM
      1 C           5.6798   33.3664    9.0250 C.2     1  UNL1        0.1628
      2 C           5.5988   34.1494   10.1275 C.2     1  UNL1        0.1562
      3 N           6.8565   34.4910   10.7865 N.pl3   1  UNL1       -0.1814
      4 C           7.6835   35.4964   10.0507 C.3     1  UNL1        0.1394
      5 S           7.6793   33.0256   11.1784 S.O2    1  UNL1        0.0769
      6 O           6.7972   32.0885   11.8219 O.2     1  UNL1       -0.1497
      7 O           8.9961   33.3844   11.7539 O.2     1  UNL1       -0.1497
      8 C           7.9500   32.4510    9.5281 C.ar    1  UNL1        0.1283
      9 C           9.1720   31.8988    9.1644 C.ar    1  UNL1        0.0203
     10 C           9.4887   31.8300    7.8131 C.ar    1  UNL1        0.0014
     11 C           8.6635   32.4517    6.8714 C.ar    1  UNL1        0.0002
     12 C           7.4616   33.0427    7.2624 C.ar    1  UNL1        0.0044
     13 C           7.0184   32.9130    8.5784 C.ar    1  UNL1        0.0544
     14 C           4.3419   34.7327   10.7311 C.2     1  UNL1        0.2685
     15 O           4.2121   34.8411   11.9456 O.2     1  UNL1       -0.2683
     16 N           3.4182   35.0910    9.7743 N.am    1  UNL1       -0.2647
     17 H           3.5400   34.6581    8.8684 H       1  UNL1        0.1566
     18 C           2.1248   35.4826   10.0937 C.ar    1  UNL1        0.1344
     19 C           1.2165   34.4835   10.4263 C.ar    1  UNL1        0.0345
     20 C          -0.0999   34.8427   10.6906 C.ar    1  UNL1        0.0045
     21 C          -0.4767   36.1724   10.5505 C.ar    1  UNL1        0.0208
     22 C           0.4870   37.0892   10.1618 C.ar    1  UNL1        0.1003
     23 N           1.7800   36.7740    9.9411 N.ar    1  UNL1       -0.2290
     24 O           4.5288   32.9441    8.3447 O.2     1  UNL1       -0.4415
     25 C           3.9192   31.6567    8.5706 C.3     1  UNL1        0.3457
     26 C           2.5287   31.5475    7.9049 C.3     1  UNL1        0.0997
     27 O           3.7945   31.2032    9.9195 O.3     1  UNL1       -0.3825
     28 C           4.4018   30.0100   10.1101 C.2     1  UNL1        0.5143
     29 O           5.4944   29.7192    9.6964 O.2     1  UNL1       -0.2027
     30 O           3.7209   29.3014   11.0525 O.3     1  UNL1       -0.4180
     31 C           2.8042   27.3682    9.9753 C.3     1  UNL1        0.0514
     32 C           2.5010   28.7367   10.5518 C.3     1  UNL1        0.2122
@<TRIPOS>BOND
     1    31    32    1
     2    32    30    1
     3    30    28    1
     4    28    29    2
     5    28    27    1
     6    27    25    1
     7    25    26    1
     8    25    24    1
     9    24     1    1
    10     1     2    2
    11     1    13    1
    12     2    14    1
    13     2     3    1
    14    14    15    2
    15    14    16   am
    16    16    18    1
    17    16    17    1
    18    18    19   ar
    19    18    23   ar
    20    19    20   ar
    21    20    21   ar
    22    21    22   ar
    23    22    23   ar
    24     3     4    1
    25     3     5    1
    26     5     6    2
    27     5     7    2
    28     5     8    1
    29     8     9   ar
    30     8    13   ar
    31     9    10   ar
    32    10    11   ar
    33    11    12   ar
    34    12    13   ar



#	Name:			CHEMBL157101
#	Creating user name:	trannguyen
#	Creation time:		Wed Dec  7 14:36:25 2022


#	Modifying user name:	trannguyen
#	Modification time:	Wed Dec  7 14:36:25 2022

@<TRIPOS>MOLECULE
CHEMBL157101
 36 40 0 0 0
SMALL
GASTEIGER

@<TRIPOS>ATOM
      1 C           6.5188   31.9564    6.0380 C.3     1  UNL1        0.1909
      2 C           7.8341   31.8773    6.7621 C.3     1  UNL1        0.1783
      3 O           7.4560   31.7681    8.1390 O.3     1  UNL1       -0.3267
      4 C           6.1546   32.3948    8.2452 C.3     1  UNL1        0.2296
      5 O           5.6971   32.7118    6.9275 O.3     1  UNL1       -0.3255
      6 C           5.1951   31.4027    8.9219 C.ar    1  UNL1        0.0409
      7 C           5.7436   30.2751    9.5761 C.ar    1  UNL1        0.0022
      8 C           4.9355   29.3241   10.2053 C.ar    1  UNL1        0.0113
      9 C           3.5563   29.4800   10.1975 C.ar    1  UNL1        0.0585
     10 CL          2.5574   28.3123   10.9692 Cl      1  UNL1       -0.0822
     11 C           2.9822   30.5842    9.5793 C.ar    1  UNL1        0.0226
     12 C           3.7916   31.5475    8.9589 C.ar    1  UNL1        0.0591
     13 CL          2.9513   32.9079    8.2973 Cl      1  UNL1       -0.0824
     14 C           6.5823   32.6709    4.7039 C.3     1  UNL1        0.2374
     15 O           6.6637   31.7420    3.6276 O.3     1  UNL1       -0.4727
     16 C           7.7020   33.2349   -0.1561 C.ar    1  UNL1        0.0481
     17 C           8.0587   31.9503    0.2754 C.ar    1  UNL1        0.0176
     18 C           7.7034   31.4881    1.5488 C.ar    1  UNL1        0.0382
     19 C           6.9806   32.3017    2.4168 C.ar    1  UNL1        0.1388
     20 C           6.6339   33.5885    2.0053 C.ar    1  UNL1        0.0382
     21 C           6.9929   34.0457    0.7368 C.ar    1  UNL1        0.0176
     22 C           6.7210   34.1058   -6.2957 C.3     1  UNL1        0.0948
     23 C           7.0690   35.1333   -5.2538 C.2     1  UNL1        0.2262
     24 O           6.7396   36.3039   -5.4055 O.2     1  UNL1       -0.2749
     25 N           7.7353   34.6828   -4.1293 N.am    1  UNL1       -0.2760
     26 C           8.0710   35.6250   -3.0538 C.3     1  UNL1        0.1148
     27 C           7.5396   35.1316   -1.6998 C.3     1  UNL1        0.1123
     28 N           8.0158   33.7569   -1.4231 N.pl3   1  UNL1       -0.3041
     29 C           7.6991   32.7890   -2.5022 C.3     1  UNL1        0.1123
     30 C           8.1693   33.3033   -3.8685 C.3     1  UNL1        0.1148
     31 C           6.2601   33.6883    9.0848 C.3     1  UNL1        0.1682
     32 N           7.4399   33.7319    9.9359 N.ar    1  UNL1       -0.3025
     33 C           7.6298   33.0382   11.0999 C.ar    1  UNL1        0.0982
     34 C           8.8796   33.4108   11.5367 C.ar    1  UNL1        0.1193
     35 N           9.4457   34.3124   10.6732 N.ar    1  UNL1       -0.2223
     36 C           8.5538   34.4941    9.7250 C.ar    1  UNL1        0.1788
@<TRIPOS>BOND
     1    22    23    1
     2    23    24    2
     3    23    25   am
     4    25    26    1
     5    25    30    1
     6    26    27    1
     7    27    28    1
     8    28    16    1
     9    28    29    1
    10    16    17   ar
    11    16    21   ar
    12    17    18   ar
    13    18    19   ar
    14    19    15    1
    15    19    20   ar
    16    15    14    1
    17    14     1    1
    18     1     2    1
    19     1     5    1
    20     2     3    1
    21     3     4    1
    22     4    31    1
    23     4     6    1
    24     4     5    1
    25    31    32    1
    26    32    33   ar
    27    32    36   ar
    28    33    34   ar
    29    34    35   ar
    30    35    36   ar
    31     6     7   ar
    32     6    12   ar
    33     7     8   ar
    34     8     9   ar
    35     9    10    1
    36     9    11   ar
    37    11    12   ar
    38    12    13    1
    39    20    21   ar
    40    29    30    1



#	Name:			CHEMBL158
#	Creating user name:	trannguyen
#	Creation time:		Wed Dec  7 14:36:25 2022


#	Modifying user name:	trannguyen
#	Modification time:	Wed Dec  7 14:36:25 2022

@<TRIPOS>MOLECULE
CHEMBL158
 33 34 0 0 0
SMALL
GASTEIGER

@<TRIPOS>ATOM
      1 C           3.4827   34.6412    9.0907 C.2     1  UNL1        0.1904
      2 N           4.6832   35.1474    9.1676 N.2     1  UNL1       -0.0765
      3 C           2.3996   35.5684    9.4456 C.ar    1  UNL1        0.1150
      4 C           1.4361   35.3129   10.4093 C.ar    1  UNL1        0.0590
      5 S           0.3415   36.6208   10.5233 S.2     1  UNL1       -0.0514
      6 C           1.2025   37.4348    9.2845 C.ar    1  UNL1        0.1568
      7 N           0.7995   38.6281    8.8326 N.pl3   1  UNL1       -0.3375
      8 N           2.2687   36.8166    8.8359 N.ar    1  UNL1       -0.2227
      9 H           0.1393   39.1718    9.3754 H       1  UNL1        0.1442
     10 H           1.4313   39.1644    8.2515 H       1  UNL1        0.1442
     11 N           3.6014   32.2016    9.5483 N.am    1  UNL1       -0.2920
     12 C           3.1783   33.1834    8.6662 C.2     1  UNL1        0.2687
     13 O           2.6192   32.9173    7.6110 O.2     1  UNL1       -0.2683
     14 H           4.0821   32.5092   10.3926 H       1  UNL1        0.1502
     15 C           4.8684   28.6760    9.8290 C.3     1  UNL1        0.0258
     16 C           3.9324   29.7471   10.3538 C.3     1  UNL1        0.1277
     17 C           3.4009   30.7509    9.2803 C.3     1  UNL1        0.1709
     18 C           1.9871   30.1783    9.6645 C.2     1  UNL1        0.2652
     19 O           0.8421   30.3588    9.3639 O.2     1  UNL1       -0.2714
     20 N           2.5457   29.2907   10.5853 N.am    1  UNL1       -0.1387
     21 S           1.8700   27.8859   11.0793 S.O2    1  UNL1        0.1691
     22 O           2.3170   26.8159   10.2231 O.2     1  UNL1       -0.1264
     23 O           2.0199   27.7895   12.5153 O.2     1  UNL1       -0.1264
     24 O           0.2970   28.0642   10.8083 O.3     1  UNL1       -0.2376
     25 H          -0.1176   27.1779   10.8270 H       1  UNL1        0.2463
     26 O           5.6916   34.2496    8.7993 O.2     1  UNL1       -0.3737
     27 C           6.8232   34.3870    9.6718 C.3     1  UNL1        0.2486
     28 C           7.9559   33.4538    9.2243 C.3     1  UNL1        0.0582
     29 C           7.2968   35.8376    9.5244 C.3     1  UNL1        0.0582
     30 C           6.4356   34.1508   11.1435 C.2     1  UNL1        0.3530
     31 O           6.6208   33.1315   11.7937 O.2     1  UNL1       -0.2463
     32 O           5.8327   35.2071   11.7365 O.3     1  UNL1       -0.4778
     33 H           5.6842   34.9138   12.6585 H       1  UNL1        0.2952
@<TRIPOS>BOND
     1    15    16    1
     2    16    17    1
     3    16    20    1
     4    17    18    1
     5    17    11    1
     6    11    12   am
     7    11    14    1
     8    12    13    2
     9    12     1    1
    10     1     2    2
    11     1     3    1
    12     2    26    1
    13    26    27    1
    14    27    28    1
    15    27    29    1
    16    27    30    1
    17    30    31    2
    18    30    32    1
    19    32    33    1
    20     3     4   ar
    21     3     8   ar
    22     4     5   ar
    23     5     6   ar
    24     6     7    1
    25     6     8   ar
    26     7     9    1
    27     7    10    1
    28    18    19    2
    29    18    20   am
    30    20    21    1
    31    21    22    2
    32    21    23    2
    33    21    24    1
    34    24    25    1



#	Name:			CHEMBL1586
#	Creating user name:	trannguyen
#	Creation time:		Wed Dec  7 14:36:25 2022


#	Modifying user name:	trannguyen
#	Modification time:	Wed Dec  7 14:36:25 2022

@<TRIPOS>MOLECULE
CHEMBL1586
 31 34 0 0 0
SMALL
GASTEIGER

@<TRIPOS>ATOM
      1 C           5.1859   33.1640    5.8769 C.3     1  UNL1        0.0028
      2 C           5.5397   32.1260    6.9457 C.3     1  UNL1        0.0315
      3 C           7.0490   32.1862    7.2776 C.3     1  UNL1        0.0029
      4 C           7.0825   33.2323    8.3750 C.3     1  UNL1        0.0040
      5 C           8.3914   33.5428    9.1150 C.3     1  UNL1        0.0172
      6 C           9.5997   33.7227    8.1844 C.3     1  UNL1        0.0056
      7 C          10.8761   33.9500    8.9935 C.3     1  UNL1        0.0225
      8 C          10.7263   35.0866    9.9762 C.2     1  UNL1       -0.0367
      9 C          11.6133   36.0988    9.9601 C.2     1  UNL1        0.0339
     10 C          11.5000   37.2571   10.8672 C.2     1  UNL1        0.1948
     11 O          12.3440   38.1481   10.8712 O.2     1  UNL1       -0.2866
     12 C          10.3362   37.2986   11.7683 C.2     1  UNL1        0.0378
     13 C           9.4471   36.2961   11.7938 C.2     1  UNL1       -0.0185
     14 C           9.5168   35.0311   10.9369 C.3     1  UNL1        0.0489
     15 C           9.7782   33.8902   11.9544 C.3     1  UNL1        0.0097
     16 C           8.1864   34.7778   10.0843 C.3     1  UNL1        0.0982
     17 CL          7.8815   36.2882    9.0513 Cl      1  UNL1       -0.1131
     18 C           6.8802   34.5786   10.9467 C.3     1  UNL1        0.1249
     19 O           6.4728   35.7819   11.6058 O.3     1  UNL1       -0.3832
     20 C           5.6428   34.0482   10.1733 C.3     1  UNL1        0.0332
     21 C           5.9524   32.7837    9.3397 C.3     1  UNL1        0.0314
     22 C           6.3693   31.6442   10.3130 C.3     1  UNL1        0.0028
     23 C           4.8263   32.2629    8.3403 C.3     1  UNL1        0.1413
     24 O           4.4437   30.8992    8.6240 O.3     1  UNL1       -0.3797
     25 H           6.4052   36.4755   10.9191 H       1  UNL1        0.2104
     26 H           4.2218   30.7852    9.5617 H       1  UNL1        0.2108
     27 C           3.5331   33.1192    8.4065 C.2     1  UNL1        0.2038
     28 O           3.4660   34.2960    8.0439 O.2     1  UNL1       -0.2910
     29 C           2.3097   32.4683    9.0579 C.3     1  UNL1        0.2044
     30 O           2.5036   32.2126   10.4389 O.3     1  UNL1       -0.3749
     31 H           3.0914   32.9219   10.7680 H       1  UNL1        0.2110
@<TRIPOS>BOND
     1     2     3    1
     2     2    23    1
     3     2     1    1
     4     3     4    1
     5     4     5    1
     6     4    21    1
     7     5     6    1
     8     5    16    1
     9     6     7    1
    10     7     8    1
    11     8     9    2
    12     8    14    1
    13     9    10    1
    14    10    11    2
    15    10    12    1
    16    12    13    2
    17    13    14    1
    18    14    15    1
    19    14    16    1
    20    16    17    1
    21    16    18    1
    22    18    20    1
    23    18    19    1
    24    19    25    1
    25    20    21    1
    26    21    22    1
    27    21    23    1
    28    23    24    1
    29    23    27    1
    30    24    26    1
    31    27    28    2
    32    27    29    1
    33    29    30    1
    34    30    31    1



#	Name:			CHEMBL159
#	Creating user name:	trannguyen
#	Creation time:		Wed Dec  7 14:36:25 2022


#	Modifying user name:	trannguyen
#	Modification time:	Wed Dec  7 14:36:25 2022

@<TRIPOS>MOLECULE
CHEMBL159
 62 70 0 0 0
SMALL
GASTEIGER

@<TRIPOS>ATOM
      1 C           9.3836   37.4515    6.3161 C.ar    1  UNL1        0.0262
      2 C           8.5801   36.5462    5.5452 C.ar    1  UNL1       -0.0034
      3 C           8.7234   35.1578    5.6715 C.ar    1  UNL1       -0.0066
      4 C           9.6738   34.6182    6.5439 C.ar    1  UNL1        0.0470
      5 C          10.4584   35.4506    7.3028 C.ar    1  UNL1        0.0508
      6 C          10.3564   36.8532    7.1738 C.ar    1  UNL1        0.1367
      7 N           9.6854   33.2390    6.5249 N.pl3   1  UNL1       -0.3043
      8 C          10.7433   32.3282    6.8780 C.3     1  UNL1        0.1122
      9 C           8.4970   32.8201    5.7770 C.3     1  UNL1        0.1163
     10 C           7.3500   32.4859    6.7850 C.3     1  UNL1        0.2316
     11 O           7.3335   31.0313    6.8907 O.3     1  UNL1       -0.3727
     12 C           5.9417   32.9899    6.3610 C.3     1  UNL1        0.2097
     13 C           5.7082   33.0261    4.8139 C.3     1  UNL1        0.0719
     14 C           5.6775   31.6095    4.2659 C.2     1  UNL1       -0.0250
     15 C           6.3626   31.2371    3.1794 C.2     1  UNL1       -0.0132
     16 C           7.2321   32.1571    2.3979 C.3     1  UNL1        0.0985
     17 N           7.0784   33.5909    2.7068 N.3     1  UNL1       -0.2695
     18 C           8.3315   34.2829    2.3863 C.3     1  UNL1        0.0728
     19 C           9.2108   34.0008    3.5909 C.3     1  UNL1        0.0244
     20 C           8.2253   34.0002    4.8037 C.3     1  UNL1        0.0547
     21 C           6.8247   33.9287    4.1450 C.3     1  UNL1        0.0703
     22 H           6.7812   30.8308    7.6661 H       1  UNL1        0.2111
     23 C           5.3514   42.3674    5.6291 C.3     1  UNL1        0.1030
     24 O           4.1129   42.6411    4.9508 O.3     1  UNL1       -0.3854
     25 C           5.8518   40.9765    5.1176 C.3     1  UNL1        0.0297
     26 C           7.3430   40.8151    5.4491 C.3     1  UNL1        0.0196
     27 C           8.0831   41.9021    4.6835 C.3     1  UNL1        0.0722
     28 N           7.8114   43.1925    5.3152 N.3     1  UNL1       -0.2704
     29 C           8.3770   43.3724    6.6737 C.3     1  UNL1        0.0769
     30 C           9.5764   42.4723    7.0702 C.3     1  UNL1        0.0449
     31 C           9.2854   41.2129    7.8780 C.ar    1  UNL1       -0.0071
     32 C           9.1900   39.8450    7.5106 C.ar    1  UNL1        0.0431
     33 N           8.8715   39.1615    8.6698 N.ar    1  UNL1       -0.3560
     34 H           8.7199   38.1633    8.7284 H       1  UNL1        0.1657
     35 C           8.8256   39.9991    9.7553 C.ar    1  UNL1        0.0561
     36 C           8.5778   39.7149   11.1022 C.ar    1  UNL1        0.0169
     37 C           8.6119   40.7812   12.0071 C.ar    1  UNL1        0.0015
     38 C           8.8783   42.0792   11.5805 C.ar    1  UNL1        0.0001
     39 C           9.1128   42.3429   10.2295 C.ar    1  UNL1        0.0012
     40 C           9.0868   41.2824    9.2982 C.ar    1  UNL1        0.0127
     41 C           9.2813   39.0592    6.1441 C.3     1  UNL1        0.1437
     42 C           7.9568   39.4139    5.2890 C.3     1  UNL1        0.0218
     43 C           6.3662   43.5015    5.2370 C.3     1  UNL1        0.0993
     44 H           3.5077   41.9012    5.1313 H       1  UNL1        0.2103
     45 C           3.5543   42.2237    7.5044 C.3     1  UNL1        0.0025
     46 C           5.0365   42.2965    7.1484 C.3     1  UNL1        0.0283
     47 C          10.5434   39.5078    5.3121 C.2     1  UNL1        0.3253
     48 O          11.5671   39.9519    5.8354 O.2     1  UNL1       -0.2494
     49 O          10.4235   39.3129    3.9663 O.3     1  UNL1       -0.4439
     50 C          11.3711   38.4545    3.3059 C.3     1  UNL1        0.2556
     51 O          11.1973   37.6760    7.8883 O.3     1  UNL1       -0.4717
     52 C          11.8283   37.0572    9.0165 C.3     1  UNL1        0.2525
     53 C           7.5657   33.0615    8.2024 C.2     1  UNL1        0.3466
     54 O           8.1321   32.4877    9.1601 O.2     1  UNL1       -0.2473
     55 O           6.9793   34.3037    8.3203 O.3     1  UNL1       -0.4427
     56 C           7.3394   35.1191    9.4416 C.3     1  UNL1        0.2557
     57 C           4.2889   33.6353    4.5182 C.3     1  UNL1        0.0089
     58 C           3.2263   32.6821    3.9609 C.3     1  UNL1        0.0005
     59 O           5.0516   32.0517    7.0246 O.3     1  UNL1       -0.4488
     60 C           3.9571   32.5146    7.6771 C.2     1  UNL1        0.3175
     61 C           2.9617   31.4089    7.9385 C.3     1  UNL1        0.1212
     62 O           3.7754   33.7052    7.9778 O.2     1  UNL1       -0.2501
@<TRIPOS>BOND
     1    45    46    1
     2    23    46    1
     3    23    24    1
     4    23    25    1
     5    23    43    1
     6    24    44    1
     7    25    26    1
     8    26    27    1
     9    26    42    1
    10    27    28    1
    11    28    29    1
    12    28    43    1
    13    29    30    1
    14    30    31    1
    15    31    32   ar
    16    31    40   ar
    17    32    33   ar
    18    32    41    1
    19    33    34    1
    20    33    35   ar
    21    35    36   ar
    22    35    40   ar
    23    36    37   ar
    24    37    38   ar
    25    38    39   ar
    26    39    40   ar
    27    41    42    1
    28    41     1    1
    29    41    47    1
    30    47    48    2
    31    47    49    1
    32    49    50    1
    33     1     2   ar
    34     1     6   ar
    35     2     3   ar
    36     3     4   ar
    37     3    20    1
    38     4     5   ar
    39     4     7    1
    40     5     6   ar
    41     6    51    1
    42    51    52    1
    43     7     9    1
    44     7     8    1
    45     9    10    1
    46     9    20    1
    47    10    12    1
    48    10    11    1
    49    10    53    1
    50    11    22    1
    51    53    54    2
    52    53    55    1
    53    55    56    1
    54    12    13    1
    55    12    59    1
    56    59    60    1
    57    60    61    1
    58    60    62    2
    59    13    14    1
    60    13    21    1
    61    13    57    1
    62    57    58    1
    63    14    15    2
    64    15    16    1
    65    16    17    1
    66    17    18    1
    67    17    21    1
    68    18    19    1
    69    20    19    1
    70    20    21    1



#	Name:			CHEMBL159103
#	Creating user name:	trannguyen
#	Creation time:		Wed Dec  7 14:36:25 2022


#	Modifying user name:	trannguyen
#	Modification time:	Wed Dec  7 14:36:25 2022

@<TRIPOS>MOLECULE
CHEMBL159103
 33 35 0 0 0
SMALL
GASTEIGER

@<TRIPOS>ATOM
      1 C           3.9533   31.5923    3.8264 C.3     1  UNL1        0.0504
      2 C           4.9467   32.1312    4.8164 C.ar    1  UNL1        0.0414
      3 C           4.7978   32.4262    6.1714 C.ar    1  UNL1        0.0128
      4 C           6.1233   32.4595    6.7480 C.ar    1  UNL1        0.0131
      5 C           6.9920   32.1555    5.6781 C.ar    1  UNL1        0.0414
      6 C           8.4381   31.7930    5.7430 C.3     1  UNL1        0.0504
      7 N           6.2777   32.3481    4.4781 N.ar    1  UNL1       -0.3135
      8 C           6.5743   32.6182    8.1664 C.ar    1  UNL1        0.0013
      9 C           6.4701   31.5559    9.0898 C.ar    1  UNL1        0.0023
     10 C           6.9531   31.6657   10.4087 C.ar    1  UNL1        0.0296
     11 C           7.5438   32.8453   10.8326 C.ar    1  UNL1        0.1401
     12 F           8.0163   32.9473   12.0825 F       1  UNL1       -0.2042
     13 C           7.6424   33.9198    9.9656 C.ar    1  UNL1        0.0296
     14 C           7.1554   33.8071    8.6490 C.ar    1  UNL1        0.0023
     15 C           6.7516   32.6111    3.1367 C.ar    1  UNL1        0.0634
     16 C           6.6632   33.9075    2.5882 C.ar    1  UNL1        0.0175
     17 C           7.1758   34.1835    1.3056 C.ar    1  UNL1        0.0015
     18 C           7.7676   33.1764    0.5484 C.ar    1  UNL1        0.0001
     19 C           7.8261   31.8912    1.0627 C.ar    1  UNL1        0.0015
     20 C           7.3195   31.6169    2.3374 C.ar    1  UNL1        0.0175
     21 C           3.5224   32.4647    6.8415 C.2     1  UNL1       -0.0010
     22 C           2.9458   31.4418    7.4936 C.2     1  UNL1        0.0026
     23 C           1.6955   31.4736    8.3144 C.3     1  UNL1        0.1349
     24 O           0.8674   30.4495    7.7631 O.3     1  UNL1       -0.3800
     25 H           0.1077   30.3322    8.3582 H       1  UNL1        0.2108
     26 C           1.7942   31.3886    9.8583 C.3     1  UNL1        0.0634
     27 C           1.6823   30.0346   10.5842 C.3     1  UNL1        0.1188
     28 O           0.4304   29.4318   10.2318 O.3     1  UNL1       -0.3840
     29 H           0.4333   28.5246   10.5856 H       1  UNL1        0.2104
     30 C           2.7960   29.0306   10.3658 C.3     1  UNL1        0.0710
     31 C           2.5351   27.6412   10.8737 C.2     1  UNL1        0.0528
     32 O           2.6733   26.6623   10.1124 O.co2   1  UNL1       -0.5491
     33 O           1.9929   27.5992   12.0301 O.co2   1  UNL1       -0.5491
@<TRIPOS>UNITY_ATOM_ATTR
32 1
charge -1
@<TRIPOS>BOND
     1     1     2    1
     2     2     3   ar
     3     2     7   ar
     4     3    21    1
     5     3     4   ar
     6    21    22    2
     7    22    23    1
     8    23    24    1
     9    23    26    1
    10    24    25    1
    11    26    27    1
    12    27    28    1
    13    27    30    1
    14    28    29    1
    15    30    31    1
    16    31    32   ar
    17    31    33   ar
    18     4     8    1
    19     4     5   ar
    20     8     9   ar
    21     8    14   ar
    22     9    10   ar
    23    10    11   ar
    24    11    12    1
    25    11    13   ar
    26    13    14   ar
    27     5     6    1
    28     5     7   ar
    29     7    15    1
    30    15    16   ar
    31    15    20   ar
    32    16    17   ar
    33    17    18   ar
    34    18    19   ar
    35    19    20   ar






#	Name:			CHEMBL1598608
#	Creating user name:	trannguyen
#	Creation time:		Wed Dec  7 14:36:25 2022


#	Modifying user name:	trannguyen
#	Modification time:	Wed Dec  7 14:36:25 2022

@<TRIPOS>MOLECULE
CHEMBL1598608
 25 28 0 0 0
SMALL
GASTEIGER

@<TRIPOS>ATOM
      1 C           0.8600   28.6372   10.5873 C.3     1  UNL1        0.1202
      2 N           2.2061   29.0980   10.2895 N.am    1  UNL1       -0.2512
      3 C           3.2340   28.1663   10.2192 C.2     1  UNL1        0.2740
      4 O           3.0849   26.9552   10.3747 O.2     1  UNL1       -0.2705
      5 C           4.6146   28.7736   10.0427 C.3     1  UNL1        0.2900
      6 O           4.6971   29.9557    9.2674 O.3     1  UNL1       -0.4642
      7 C           3.7318   30.8826    9.5776 C.ar    1  UNL1        0.1571
      8 C           3.9980   32.2417    9.3103 C.ar    1  UNL1        0.0893
      9 C           3.0085   33.1978    9.5873 C.ar    1  UNL1        0.0190
     10 C           1.7747   32.8036   10.0895 C.ar    1  UNL1        0.0593
     11 CL          0.5690   33.9863   10.4201 Cl      1  UNL1       -0.0822
     12 C           1.5005   31.4579   10.3250 C.ar    1  UNL1        0.0294
     13 C           2.4743   30.4815   10.0761 C.ar    1  UNL1        0.0891
     14 C           5.2886   32.7643    8.7552 C.2     1  UNL1        0.2489
     15 O           5.2932   33.3892    7.6971 O.2     1  UNL1       -0.2700
     16 N           6.4356   32.5238    9.4698 N.am    1  UNL1       -0.3010
     17 H           6.3691   31.8959   10.2641 H       1  UNL1        0.1497
     18 C           7.7515   32.9362    9.0077 C.3     1  UNL1        0.0878
     19 C           8.8886   31.9956    9.4901 C.3     1  UNL1        0.0919
     20 N           9.9944   32.7459   10.1460 N.3     1  UNL1       -0.2713
     21 C          10.5046   33.7685    9.2057 C.3     1  UNL1        0.0722
     22 C           9.4078   34.7623    8.7857 C.3     1  UNL1        0.0191
     23 C           8.0807   34.3751    9.4609 C.3     1  UNL1        0.0221
     24 C           8.3224   34.4003   10.9812 C.3     1  UNL1        0.0191
     25 C           9.4546   33.4263   11.3415 C.3     1  UNL1        0.0722
@<TRIPOS>BOND
     1     1     2    1
     2     2     3   am
     3     2    13    1
     4     3     4    2
     5     3     5    1
     6     5     6    1
     7     6     7    1
     8     7     8   ar
     9     7    13   ar
    10     8    14    1
    11     8     9   ar
    12    14    15    2
    13    14    16   am
    14    16    18    1
    15    16    17    1
    16    18    19    1
    17    18    23    1
    18    19    20    1
    19    20    21    1
    20    20    25    1
    21    21    22    1
    22    22    23    1
    23    23    24    1
    24    24    25    1
    25     9    10   ar
    26    10    11    1
    27    10    12   ar
    28    12    13   ar



#	Name:			CHEMBL1601669
#	Creating user name:	trannguyen
#	Creation time:		Wed Dec  7 14:36:25 2022


#	Modifying user name:	trannguyen
#	Modification time:	Wed Dec  7 14:36:25 2022

@<TRIPOS>MOLECULE
CHEMBL1601669
 31 33 0 0 0
SMALL
GASTEIGER

@<TRIPOS>ATOM
      1 C           6.2818   32.1675   10.0190 C.2     1  UNL1       -0.0088
      2 C           7.2602   33.0486   10.3426 C.2     1  UNL1       -0.0446
      3 C           7.9166   32.9302   11.6980 C.3     1  UNL1        0.0220
      4 C           9.4400   33.0198   11.6884 C.3     1  UNL1        0.0044
      5 C          10.0401   33.6455   10.4330 C.3     1  UNL1        0.0006
      6 C           9.1858   34.7329    9.7681 C.3     1  UNL1        0.0034
      7 C           9.1400   35.9759   10.7059 C.3     1  UNL1        0.0003
      8 C           7.7000   34.2623    9.5348 C.3     1  UNL1        0.0183
      9 C           7.5819   34.1780    8.0102 C.3     1  UNL1        0.0040
     10 C           8.4532   35.3106    7.5056 C.3     1  UNL1        0.0003
     11 C           9.7254   35.2073    8.3512 C.3     1  UNL1        0.0003
     12 C           4.6656   29.3105    9.8624 C.2     1  UNL1       -0.0025
     13 C           3.8453   30.3438    9.5585 C.2     1  UNL1        0.0004
     14 C           4.2867   31.4393    8.6962 C.2     1  UNL1       -0.0215
     15 C           5.3737   32.2280    8.9018 C.2     1  UNL1       -0.0051
     16 C           3.3674   31.6841    7.5218 C.3     1  UNL1        0.0554
     17 C           1.9007   31.7986    7.9624 C.3     1  UNL1        0.1176
     18 O           1.0509   31.9068    6.8177 O.3     1  UNL1       -0.3840
     19 C           1.4627   30.5875    8.7906 C.3     1  UNL1        0.0633
     20 C           2.3887   30.3505    9.9817 C.3     1  UNL1        0.1348
     21 O           2.1746   31.3648   10.9557 O.3     1  UNL1       -0.3800
     22 H           1.1478   31.0932    6.2941 H       1  UNL1        0.2104
     23 H           1.2290   31.3872   11.1724 H       1  UNL1        0.2108
     24 C          10.8950   34.4233    7.6245 C.3     1  UNL1        0.0000
     25 C          12.1999   35.2364    7.7978 C.3     1  UNL1        0.0000
     26 C          10.6592   34.0569    6.1201 C.3     1  UNL1        0.0000
     27 C          10.1621   32.6228    5.8255 C.3     1  UNL1        0.0000
     28 C          10.7402   31.5584    6.7971 C.3     1  UNL1        0.0000
     29 C           9.7729   31.1713    7.9469 C.3     1  UNL1        0.0000
     30 C           8.4591   30.5722    7.4403 C.3     1  UNL1        0.0000
     31 C          10.4247   30.1928    8.9365 C.3     1  UNL1        0.0000
@<TRIPOS>BOND
     1    12    13    2
     2    13    14    1
     3    13    20    1
     4    14    15    2
     5    14    16    1
     6    15     1    1
     7     1     2    2
     8     2     3    1
     9     2     8    1
    10     3     4    1
    11     4     5    1
    12     5     6    1
    13     6     8    1
    14     6    11    1
    15     6     7    1
    16     8     9    1
    17     9    10    1
    18    10    11    1
    19    11    24    1
    20    24    26    1
    21    24    25    1
    22    26    27    1
    23    27    28    1
    24    28    29    1
    25    29    30    1
    26    29    31    1
    27    16    17    1
    28    17    19    1
    29    17    18    1
    30    18    22    1
    31    19    20    1
    32    20    21    1
    33    21    23    1



#	Name:			CHEMBL1612004
#	Creating user name:	trannguyen
#	Creation time:		Wed Dec  7 14:36:25 2022


#	Modifying user name:	trannguyen
#	Modification time:	Wed Dec  7 14:36:25 2022

@<TRIPOS>MOLECULE
CHEMBL1612004
 11 11 0 0 0
SMALL
GASTEIGER

@<TRIPOS>ATOM
      1 C           1.2555   29.9016    9.4796 C.ar    1  UNL1        0.1515
      2 C           2.6021   30.2038    9.2729 C.ar    1  UNL1        0.0382
      3 C           3.5823   29.4101    9.8651 C.ar    1  UNL1        0.0032
      4 C           3.2106   28.3247   10.6589 C.ar    1  UNL1        0.0015
      5 C           1.8588   28.0145   10.8404 C.ar    1  UNL1        0.0172
      6 C           0.8665   28.7638   10.2044 C.ar    1  UNL1        0.0760
      7 N          -0.4919   28.5115   10.4755 N.pl3   1  UNL1       -0.3546
      8 H          -0.6905   27.5282   10.6265 H       1  UNL1        0.1424
      9 H          -1.0783   28.9162    9.7467 H       1  UNL1        0.1424
     10 C           0.6227   32.0651    9.0850 C.3     1  UNL1        0.2525
     11 O           0.2962   30.6882    8.8869 O.3     1  UNL1       -0.4702
@<TRIPOS>BOND
     1    10    11    1
     2    11     1    1
     3     1     2   ar
     4     1     6   ar
     5     2     3   ar
     6     3     4   ar
     7     4     5   ar
     8     5     6   ar
     9     6     7    1
    10     7     8    1
    11     7     9    1



#	Name:			CHEMBL1614641
#	Creating user name:	trannguyen
#	Creation time:		Wed Dec  7 14:36:25 2022


#	Modifying user name:	trannguyen
#	Modification time:	Wed Dec  7 14:36:25 2022

@<TRIPOS>MOLECULE
CHEMBL1614641
 22 24 0 0 0
SMALL
GASTEIGER

@<TRIPOS>ATOM
      1 C           2.8078   29.5626    9.6979 C.ar    1  UNL1       -0.0103
      2 C           2.5077   30.6607    8.8652 C.ar    1  UNL1       -0.0005
      3 C           3.4415   31.6771    8.6128 C.ar    1  UNL1        0.0388
      4 C           4.6804   31.5280    9.2206 C.ar    1  UNL1        0.1647
      5 O           5.7447   32.3716    9.1359 O.2     1  UNL1       -0.4346
      6 C           6.7111   31.7770    9.9114 C.ar    1  UNL1        0.2297
      7 N           6.3356   30.6352   10.4658 N.ar    1  UNL1       -0.2083
      8 C           5.0404   30.4701   10.0338 C.ar    1  UNL1        0.1186
      9 C           4.0934   29.4632   10.2843 C.ar    1  UNL1        0.0186
     10 C           7.9798   32.5010   10.0186 C.ar    1  UNL1        0.0537
     11 C           8.8765   32.5283    8.9371 C.ar    1  UNL1        0.0070
     12 C          10.0995   33.2019    9.0397 C.ar    1  UNL1        0.0298
     13 C          10.4299   33.8512   10.2231 C.ar    1  UNL1        0.1401
     14 F          11.6021   34.4910   10.3234 F       1  UNL1       -0.2042
     15 C           9.5608   33.8439   11.3051 C.ar    1  UNL1        0.0298
     16 C           8.3398   33.1721   11.2021 C.ar    1  UNL1        0.0070
     17 C           0.3542   29.0361    9.9400 C.3     1  UNL1        0.0164
     18 C           1.7769   28.4673    9.9731 C.3     1  UNL1        0.1211
     19 C           1.9901   27.6731   11.2623 C.2     1  UNL1        0.3174
     20 O           1.9126   28.1666   12.3843 O.2     1  UNL1       -0.2499
     21 O           2.1865   26.3454   11.1069 O.3     1  UNL1       -0.4800
     22 H           2.2046   26.0377   10.1793 H       1  UNL1        0.2951
@<TRIPOS>BOND
     1    18    19    1
     2    18     1    1
     3    18    17    1
     4    19    20    2
     5    19    21    1
     6    21    22    1
     7     1     2   ar
     8     1     9   ar
     9     2     3   ar
    10     3     4   ar
    11     4     5   ar
    12     4     8   ar
    13     5     6   ar
    14     6    10    1
    15     6     7   ar
    16    10    11   ar
    17    10    16   ar
    18    11    12   ar
    19    12    13   ar
    20    13    14    1
    21    13    15   ar
    22    15    16   ar
    23     7     8   ar
    24     8     9   ar



#	Name:			CHEMBL1618305
#	Creating user name:	trannguyen
#	Creation time:		Wed Dec  7 14:36:25 2022


#	Modifying user name:	trannguyen
#	Modification time:	Wed Dec  7 14:36:25 2022

@<TRIPOS>MOLECULE
CHEMBL1618305
 52 61 0 0 0
SMALL
GASTEIGER

@<TRIPOS>ATOM
      1 N           8.8724   31.2943    8.2317 N.3     1  UNL1       -0.2678
      2 C           8.0700   30.5285    7.2633 C.3     1  UNL1        0.0730
      3 C           7.5893   31.3384    6.0487 C.3     1  UNL1        0.0277
      4 C           6.9892   32.7161    6.4647 C.3     1  UNL1        0.0886
      5 C           5.7656   32.4494    7.2437 C.ar    1  UNL1        0.0164
      6 C           5.7217   32.2281    8.6056 C.ar    1  UNL1       -0.0214
      7 C           4.4834   31.8474    9.1076 C.ar    1  UNL1       -0.0012
      8 C           3.3778   31.6895    8.2296 C.ar    1  UNL1        0.0394
      9 C           3.4851   31.9626    6.8519 C.ar    1  UNL1        0.1674
     10 O           2.4300   31.8014    6.0111 O.3     1  UNL1       -0.5029
     11 C           4.6947   32.3917    6.3710 C.ar    1  UNL1        0.1682
     12 O           5.0747   32.7669    5.0891 O.3     1  UNL1       -0.4703
     13 C           6.2966   33.4866    5.3447 C.3     1  UNL1        0.2091
     14 C           7.4519   33.7768    4.3825 C.2     1  UNL1        0.0982
     15 N           7.4316   33.2838    3.1881 N.2     1  UNL1       -0.1537
     16 C           8.5921   34.6082    5.0043 C.3     1  UNL1        0.0493
     17 C           9.1357   33.9459    6.2970 C.3     1  UNL1        0.0348
     18 C           7.9953   33.5371    7.2600 C.3     1  UNL1        0.1093
     19 O           7.4546   34.8047    7.6911 O.3     1  UNL1       -0.3850
     20 C           8.3182   32.6463    8.5151 C.3     1  UNL1        0.0872
     21 C           6.9938   32.4528    9.3994 C.3     1  UNL1        0.0445
     22 H           1.7436   31.2922    6.4700 H       1  UNL1        0.2923
     23 H           6.5995   34.6647    8.1344 H       1  UNL1        0.2103
     24 N           8.5839   33.5392    2.4638 N.2     1  UNL1       -0.1537
     25 C           8.3734   33.9980    1.2654 C.2     1  UNL1        0.0982
     26 C           6.9653   34.2583    0.7160 C.3     1  UNL1        0.0493
     27 C           6.8568   34.3084   -0.8135 C.3     1  UNL1        0.0348
     28 C           7.9431   35.2373   -1.3667 C.3     1  UNL1        0.1093
     29 O           7.6669   36.4903   -0.7142 O.3     1  UNL1       -0.3850
     30 C           8.1937   35.4458   -2.9150 C.3     1  UNL1        0.0872
     31 C           8.8359   36.8244   -3.1834 C.3     1  UNL1        0.0445
     32 C          10.0605   36.8640   -2.2136 C.ar    1  UNL1       -0.0214
     33 C          10.8748   37.9915   -2.1114 C.ar    1  UNL1       -0.0012
     34 C          11.7231   38.1360   -0.9988 C.ar    1  UNL1        0.0394
     35 C          11.7031   37.1952    0.0411 C.ar    1  UNL1        0.1674
     36 O          12.3980   37.4137    1.1941 O.3     1  UNL1       -0.5029
     37 C          10.9156   36.0637   -0.0817 C.ar    1  UNL1        0.1682
     38 C          10.2136   35.8262   -1.2427 C.ar    1  UNL1        0.0164
     39 C           9.2928   34.6271   -1.0442 C.3     1  UNL1        0.0886
     40 C           9.4486   33.3099   -1.9578 C.3     1  UNL1        0.0277
     41 C           8.4947   33.1408   -3.2567 C.3     1  UNL1        0.0730
     42 N           7.5885   34.3048   -3.5754 N.3     1  UNL1       -0.2678
     43 C           9.6197   34.2822    0.4074 C.3     1  UNL1        0.2091
     44 O          10.5579   35.2354    0.9545 O.3     1  UNL1       -0.4703
     45 H           6.8220   36.8233   -1.0645 H       1  UNL1        0.2103
     46 H          12.7212   38.3276    1.1919 H       1  UNL1        0.2923
     47 C           7.3416   34.4713   -5.0022 C.3     1  UNL1        0.0989
     48 C           7.5883   33.1886   -5.7473 C.2     1  UNL1       -0.0088
     49 C           6.8625   32.7703   -6.7929 C.2     1  UNL1       -0.0035
     50 C          10.2994   31.2119    7.9160 C.3     1  UNL1        0.0989
     51 C          11.9837   31.0746    9.7711 C.2     1  UNL1       -0.0035
     52 C          11.1879   31.7979    8.9715 C.2     1  UNL1       -0.0088
@<TRIPOS>BOND
     1    51    52    2
     2    52    50    1
     3    50     1    1
     4     1     2    1
     5     1    20    1
     6     2     3    1
     7     4     3    1
     8     4     5    1
     9     4    13    1
    10     4    18    1
    11     5     6   ar
    12     5    11   ar
    13     6     7   ar
    14     6    21    1
    15     7     8   ar
    16     8     9   ar
    17     9    10    1
    18     9    11   ar
    19    10    22    1
    20    11    12    1
    21    12    13    1
    22    13    14    1
    23    14    15    2
    24    14    16    1
    25    15    24    1
    26    24    25    2
    27    25    26    1
    28    25    43    1
    29    26    27    1
    30    27    28    1
    31    28    30    1
    32    28    39    1
    33    28    29    1
    34    29    45    1
    35    30    31    1
    36    30    42    1
    37    31    32    1
    38    32    33   ar
    39    32    38   ar
    40    33    34   ar
    41    34    35   ar
    42    35    37   ar
    43    35    36    1
    44    36    46    1
    45    37    38   ar
    46    37    44    1
    47    39    38    1
    48    39    40    1
    49    39    43    1
    50    40    41    1
    51    41    42    1
    52    42    47    1
    53    47    48    1
    54    48    49    2
    55    43    44    1
    56    16    17    1
    57    17    18    1
    58    18    19    1
    59    18    20    1
    60    19    23    1
    61    20    21    1



#	Name:			CHEMBL163
#	Creating user name:	trannguyen
#	Creation time:		Wed Dec  7 14:36:25 2022


#	Modifying user name:	trannguyen
#	Modification time:	Wed Dec  7 14:36:25 2022

@<TRIPOS>MOLECULE
CHEMBL163
 54 57 0 0 0
SMALL
GASTEIGER

@<TRIPOS>ATOM
      1 C           7.1269   32.5821    6.8249 C.3     1  UNL1        0.0784
      2 C           8.4523   34.2938    8.1921 C.2     1  UNL1        0.2403
      3 O           7.8555   35.2598    7.7150 O.2     1  UNL1       -0.2733
      4 N           8.1533   32.9890    7.8203 N.am    1  UNL1       -0.3042
      5 H           8.5354   32.2378    8.3771 H       1  UNL1        0.1494
      6 C           9.6491   34.4767    9.2312 C.3     1  UNL1        0.1496
      7 N          12.2447   31.9295    8.2184 N.am    1  UNL1       -0.2567
      8 C          12.4318   32.2948    6.8266 C.3     1  UNL1        0.1168
      9 C          11.1654   32.4230    8.9373 C.2     1  UNL1        0.3046
     10 O          10.5916   31.6859    9.7309 O.2     1  UNL1       -0.2526
     11 N          10.8306   33.7399    8.7187 N.am    1  UNL1       -0.2824
     12 H          11.2529   34.1921    7.9252 H       1  UNL1        0.1514
     13 C          12.6987   30.5688    8.5828 C.3     1  UNL1        0.1413
     14 C          14.9897   30.2791   11.3864 C.ar    1  UNL1        0.0875
     15 N          13.8558   30.0688   10.7459 N.ar    1  UNL1       -0.2453
     16 C          13.9121   30.6268    9.4692 C.ar    1  UNL1        0.0858
     17 C          15.1146   31.2347    9.1625 C.ar    1  UNL1        0.0530
     18 S          16.1943   31.1087   10.4712 S.2     1  UNL1       -0.0705
     19 C          16.2917   30.7287   13.4809 C.3     1  UNL1        0.0069
     20 C          15.2450   29.8382   12.8114 C.3     1  UNL1        0.0465
     21 C          13.9672   29.7892   13.6539 C.3     1  UNL1        0.0069
     22 C           9.8665   35.9727    9.6333 C.3     1  UNL1        0.0270
     23 C           9.7500   36.2318   11.1375 C.3     1  UNL1        0.0022
     24 C          11.1651   36.6407    9.1704 C.3     1  UNL1        0.0022
     25 C           7.4340   33.2348    5.4322 C.3     1  UNL1        0.0508
     26 C           7.7909   32.2460    4.2863 C.3     1  UNL1        0.1304
     27 O           8.9489   32.6854    3.5729 O.3     1  UNL1       -0.3827
     28 H           8.6880   33.4005    2.9710 H       1  UNL1        0.2104
     29 C           6.6402   32.0172    3.2512 C.3     1  UNL1        0.1059
     30 N           7.1820   31.3381    2.0710 N.am    1  UNL1       -0.2696
     31 C           7.5235   31.9317    0.8775 C.2     1  UNL1        0.4020
     32 O           8.1221   31.3476    0.0209 O.2     1  UNL1       -0.2264
     33 H           7.3817   30.3499    2.0537 H       1  UNL1        0.1528
     34 O           7.1728   33.2342    0.8784 O.3     1  UNL1       -0.4291
     35 C           7.1618   33.8862   -0.3839 C.3     1  UNL1        0.2447
     36 C           7.9643   35.1198   -0.1744 C.ar    1  UNL1        0.0714
     37 C           9.0178   35.3274    0.6933 C.ar    1  UNL1        0.1053
     38 N           9.5555   36.5973    0.6839 N.ar    1  UNL1       -0.2350
     39 C           8.8908   37.3416   -0.1723 C.ar    1  UNL1        0.1343
     40 S           7.5906   36.5807   -0.9895 S.2     1  UNL1       -0.0652
     41 C           5.4805   31.1908    3.8849 C.3     1  UNL1        0.0485
     42 C           4.1429   31.8870    4.0791 C.ar    1  UNL1       -0.0204
     43 C           2.9662   31.1745    4.3452 C.ar    1  UNL1       -0.0042
     44 C           1.7477   31.8448    4.5224 C.ar    1  UNL1       -0.0003
     45 C           1.6885   33.2354    4.4476 C.ar    1  UNL1       -0.0000
     46 C           2.8420   33.9545    4.1547 C.ar    1  UNL1       -0.0003
     47 C           4.0494   33.2826    3.9379 C.ar    1  UNL1       -0.0042
     48 C           5.6749   32.9284    7.2904 C.3     1  UNL1        0.0460
     49 C           4.7831   31.9453    8.0200 C.ar    1  UNL1       -0.0205
     50 C           5.3993   31.1162    8.9837 C.ar    1  UNL1       -0.0042
     51 C           4.6629   30.2015    9.7363 C.ar    1  UNL1       -0.0003
     52 C           3.2906   30.1045    9.5432 C.ar    1  UNL1       -0.0000
     53 C           2.6672   30.9090    8.5881 C.ar    1  UNL1       -0.0003
     54 C           3.4084   31.8200    7.8236 C.ar    1  UNL1       -0.0042
@<TRIPOS>BOND
     1    19    20    1
     2    20    21    1
     3    20    14    1
     4    14    15   ar
     5    14    18   ar
     6    15    16   ar
     7    16    13    1
     8    16    17   ar
     9    13     7    1
    10     7     8    1
    11     7     9   am
    12     9    10    2
    13     9    11   am
    14    11    12    1
    15     6     2    1
    16     6    22    1
    17     6    11    1
    18     2     3    2
    19     2     4   am
    20     4     1    1
    21     4     5    1
    22     1    48    1
    23     1    25    1
    24    48    49    1
    25    49    50   ar
    26    49    54   ar
    27    50    51   ar
    28    51    52   ar
    29    52    53   ar
    30    53    54   ar
    31    26    27    1
    32    26    25    1
    33    27    28    1
    34    29    41    1
    35    29    30    1
    36    29    26    1
    37    41    42    1
    38    42    43   ar
    39    42    47   ar
    40    43    44   ar
    41    44    45   ar
    42    45    46   ar
    43    46    47   ar
    44    30    31   am
    45    30    33    1
    46    31    32    2
    47    31    34    1
    48    34    35    1
    49    35    36    1
    50    36    37   ar
    51    36    40   ar
    52    37    38   ar
    53    38    39   ar
    54    39    40   ar
    55    22    23    1
    56    22    24    1
    57    17    18   ar



#	Name:			CHEMBL1630579
#	Creating user name:	trannguyen
#	Creation time:		Wed Dec  7 14:36:25 2022


#	Modifying user name:	trannguyen
#	Modification time:	Wed Dec  7 14:36:25 2022

@<TRIPOS>MOLECULE
CHEMBL1630579
 19 20 0 0 0
SMALL
GASTEIGER

@<TRIPOS>ATOM
      1 C           2.9657   31.8782    7.4206 C.3     1  UNL1        0.0537
      2 C           3.3069   32.4201    6.0576 C.2     1  UNL1       -0.0463
      3 C           3.0538   33.6792    5.6307 C.2     1  UNL1       -0.0345
      4 C           3.4420   34.1227    4.2309 C.3     1  UNL1        0.0254
      5 C           4.1080   32.9434    3.4893 C.3     1  UNL1        0.0049
      6 C           3.2280   31.6619    3.6464 C.3     1  UNL1        0.0044
      7 C           3.9497   31.5131    5.0355 C.3     1  UNL1        0.0181
      8 C           5.2196   32.1547    4.3128 C.3     1  UNL1        0.0038
      9 C           6.1906   32.9845    5.1627 C.3     1  UNL1        0.0003
     10 C           6.0614   31.1519    3.4985 C.3     1  UNL1        0.0003
     11 C           1.4566   31.7247    7.6431 C.3     1  UNL1        0.1465
     12 O           1.1405   30.3868    8.0656 O.3     1  UNL1       -0.3519
     13 C           0.8461   30.3732    9.4715 C.3     1  UNL1        0.1594
     14 C           2.0813   30.7423   10.3222 C.3     1  UNL1        0.1046
     15 N           2.8870   29.5679   10.7426 N.3     1  UNL1       -0.2706
     16 C           2.4808   27.0994   10.2278 C.3     1  UNL1        0.0188
     17 C           2.0729   28.3637   10.9797 C.3     1  UNL1        0.0722
     18 C           4.0183   29.3432    9.8240 C.3     1  UNL1        0.0722
     19 C           5.3580   29.8717   10.3423 C.3     1  UNL1        0.0188
@<TRIPOS>BOND
     1    16    17    1
     2    17    15    1
     3    15    18    1
     4    15    14    1
     5    18    19    1
     6    14    13    1
     7    13    12    1
     8    12    11    1
     9    11     1    1
    10     1     2    1
    11     2     3    2
    12     2     7    1
    13     3     4    1
    14     4     5    1
    15     5     6    1
    16     5     8    1
    17     6     7    1
    18     7     8    1
    19     8     9    1
    20     8    10    1



#	Name:			CHEMBL1643
#	Creating user name:	trannguyen
#	Creation time:		Wed Dec  7 14:36:25 2022


#	Modifying user name:	trannguyen
#	Modification time:	Wed Dec  7 14:36:25 2022

@<TRIPOS>MOLECULE
CHEMBL1643
 22 23 0 0 0
SMALL
GASTEIGER

@<TRIPOS>ATOM
      1 C1*         1.6868   30.1018   10.1484 C.3     1  UNL1        0.2526
      2 O4*         2.9665   29.9972   10.8149 O.3     1  UNL1       -0.3299
      3 C4*         3.3822   28.6109   10.7790 C.3     1  UNL1        0.1757
      4 C3*         2.4260   27.8574    9.8551 C.3     1  UNL1        0.1713
      5 O3*         2.2087   26.5068   10.2560 O.3     1  UNL1       -0.3794
      6 C2*         1.1523   28.6813    9.9398 C.3     1  UNL1        0.1909
      7 O2*         0.3758   28.2477   11.0732 O.3     1  UNL1       -0.3779
      8 H3*         1.9033   26.5254   11.1824 H       1  UNL1        0.2105
      9 H2*        -0.0610   27.4198   10.7907 H       1  UNL1        0.2106
     10 C           2.7127   32.1911    7.5338 C.ar    1  UNL1        0.2368
     11 N           1.6294   31.6133    6.8847 N.ar    1  UNL1       -0.1995
     12 C           1.1395   30.7854    7.7790 C.ar    1  UNL1        0.1994
     13 N           1.8907   30.8397    8.9111 N.ar    1  UNL1       -0.2017
     14 N           2.8954   31.7271    8.7830 N.ar    1  UNL1       -0.1415
     15 N           2.8951   34.1111    6.1217 N.am    1  UNL1       -0.3227
     16 C           3.5744   33.2107    6.9025 C.2     1  UNL1        0.2805
     17 O           4.7904   33.2858    7.0319 O.2     1  UNL1       -0.2670
     18 H           3.4129   34.8443    5.6624 H       1  UNL1        0.1453
     19 H           1.8894   34.0419    6.0251 H       1  UNL1        0.1453
     20 C5*         4.8287   28.5472   10.2869 C.3     1  UNL1        0.1693
     21 O5*         5.2236   29.8180    9.7689 O.3     1  UNL1       -0.3794
     22 H5*         4.5561   30.0528    9.0972 H       1  UNL1        0.2105
@<TRIPOS>BOND
     1    15    16   am
     2    15    18    1
     3    15    19    1
     4    16    17    2
     5    16    10    1
     6    10    11   ar
     7    10    14   ar
     8    11    12   ar
     9    12    13   ar
    10    13    14   ar
    11     1     2    1
    12     1     6    1
    13     1    13    1
    14     2     3    1
    15     3    20    1
    16     3     4    1
    17    20    21    1
    18    21    22    1
    19     4     6    1
    20     4     5    1
    21     5     8    1
    22     6     7    1
    23     7     9    1



#	Name:			CHEMBL1651906
#	Creating user name:	trannguyen
#	Creation time:		Wed Dec  7 14:36:25 2022


#	Modifying user name:	trannguyen
#	Modification time:	Wed Dec  7 14:36:25 2022

@<TRIPOS>MOLECULE
CHEMBL1651906
 23 23 0 0 0
SMALL
GASTEIGER

@<TRIPOS>ATOM
      1 C           4.4744   31.2697    8.8482 C.3     1  UNL1        0.1588
      2 C           3.7827   30.0418    9.5242 C.3     1  UNL1        0.2530
      3 O           4.6518   29.0419   10.0273 O.3     1  UNL1       -0.3588
      4 O           2.9325   30.4573   10.5936 O.3     1  UNL1       -0.3267
      5 C           1.8194   31.2647   10.1691 C.3     1  UNL1        0.1760
      6 C           2.3281   32.5342    9.4658 C.3     1  UNL1        0.1686
      7 O           2.9401   33.3986   10.4371 O.3     1  UNL1       -0.3794
      8 C           3.3676   32.2411    8.3681 C.3     1  UNL1        0.1625
      9 O           2.7216   31.7147    7.2075 O.3     1  UNL1       -0.3801
     10 H           5.5369   29.4327   10.1368 H       1  UNL1        0.2130
     11 H           3.4006   32.8242   11.0834 H       1  UNL1        0.2105
     12 H           2.2523   32.4522    6.7727 H       1  UNL1        0.2105
     13 C           9.0126   32.6920   10.2105 C.3     1  UNL1        0.1478
     14 N           7.5738   32.6993   10.3808 N.am    1  UNL1       -0.1280
     15 C           6.7853   32.0043    9.4744 C.2     1  UNL1        0.3255
     16 O           7.2524   31.4053    8.4949 O.2     1  UNL1       -0.2507
     17 N           5.4356   31.9670    9.7299 N.am    1  UNL1       -0.2821
     18 H           5.0766   32.7866   10.2302 H       1  UNL1        0.1512
     19 N           7.0138   33.0894   11.6122 N.2     1  UNL1        0.0534
     20 O           7.0557   32.2071   12.4856 O.2     1  UNL1       -0.1256
     21 C           0.7973   30.4519    9.3577 C.3     1  UNL1        0.1693
     22 O          -0.0543   31.3372    8.6294 O.3     1  UNL1       -0.3794
     23 H          -0.3802   32.0021    9.2678 H       1  UNL1        0.2105
@<TRIPOS>BOND
     1    13    14    1
     2    14    19    1
     3    14    15   am
     4    19    20    2
     5    15    16    2
     6    15    17   am
     7    17     1    1
     8    17    18    1
     9     1     2    1
    10     1     8    1
    11     2     3    1
    12     2     4    1
    13     3    10    1
    14     4     5    1
    15     5    21    1
    16     5     6    1
    17    21    22    1
    18    22    23    1
    19     6     8    1
    20     6     7    1
    21     7    11    1
    22     8     9    1
    23     9    12    1



#	Name:			CHEMBL165790
#	Creating user name:	trannguyen
#	Creation time:		Wed Dec  7 14:36:25 2022


#	Modifying user name:	trannguyen
#	Modification time:	Wed Dec  7 14:36:25 2022

@<TRIPOS>MOLECULE
CHEMBL165790
 21 23 0 0 0
SMALL
GASTEIGER

@<TRIPOS>ATOM
      1 C           8.6264   32.8634    0.6011 C.ar    1  UNL1        0.1414
      2 C           8.3105   34.1290    1.0996 C.ar    1  UNL1        0.0372
      3 C           7.3734   34.2680    2.1242 C.ar    1  UNL1        0.0094
      4 C           6.7774   33.1339    2.6824 C.ar    1  UNL1        0.0737
      5 C           5.7723   33.2667    3.7525 C.ar    1  UNL1        0.2015
      6 O           5.4515   34.3884    4.1410 O.2     1  UNL1       -0.2864
      7 C           5.1846   32.0058    4.3039 C.ar    1  UNL1        0.0766
      8 C           5.6467   30.8657    3.7559 C.ar    1  UNL1        0.1826
      9 O           6.5772   30.7295    2.7504 O.2     1  UNL1       -0.4501
     10 C           7.1252   31.8699    2.2259 C.ar    1  UNL1        0.1515
     11 C           8.0566   31.7304    1.1918 C.ar    1  UNL1        0.0744
     12 C           4.1724   31.9872    5.3985 C.ar    1  UNL1        0.0061
     13 C           2.8847   31.4624    5.1968 C.ar    1  UNL1        0.0002
     14 C           1.9345   31.4352    6.2260 C.ar    1  UNL1        0.0000
     15 C           2.2491   31.9402    7.4825 C.ar    1  UNL1        0.0000
     16 C           3.5158   32.4660    7.7109 C.ar    1  UNL1        0.0000
     17 C           4.4674   32.4832    6.6828 C.ar    1  UNL1        0.0002
     18 O           9.4917   32.6323   -0.4351 O.3     1  UNL1       -0.4791
     19 C          10.3472   33.0642   -2.6492 C.3     1  UNL1        0.0472
     20 C           9.1950   33.2919   -1.6770 C.3     1  UNL1        0.1661
     21 C           7.8939   32.7118   -2.2203 C.3     1  UNL1        0.0472
@<TRIPOS>BOND
     1    19    20    1
     2    20    21    1
     3    20    18    1
     4    18     1    1
     5     1     2   ar
     6     1    11   ar
     7     2     3   ar
     8     3     4   ar
     9     4     5   ar
    10     4    10   ar
    11     5     6    2
    12     5     7   ar
    13     7    12    1
    14     7     8   ar
    15    12    13   ar
    16    12    17   ar
    17    13    14   ar
    18    14    15   ar
    19    15    16   ar
    20    16    17   ar
    21     8     9   ar
    22     9    10   ar
    23    10    11   ar



#	Name:			CHEMBL1660
#	Creating user name:	trannguyen
#	Creation time:		Wed Dec  7 14:36:25 2022


#	Modifying user name:	trannguyen
#	Modification time:	Wed Dec  7 14:36:25 2022

@<TRIPOS>MOLECULE
CHEMBL1660
 69 74 0 0 0
SMALL
GASTEIGER

@<TRIPOS>ATOM
      1 C           8.6497   39.0018    8.4731 C.3     1  UNL1        0.1438
      2 C           8.0761   39.4426    7.1273 C.2     1  UNL1        0.0431
      3 C           7.8482   40.6921    6.6904 C.2     1  UNL1        0.1742
      4 O           7.2732   40.9226    5.4714 O.2     1  UNL1       -0.4400
      5 C           7.6434   42.0828    4.6924 C.3     1  UNL1        0.3263
      6 C           6.4769   43.0521    4.6287 C.3     1  UNL1        0.1003
      7 O           8.8666   42.8001    5.1132 O.3     1  UNL1       -0.4429
      8 C           9.8868   42.0919    4.5007 C.ar    1  UNL1        0.1445
      9 C          11.1852   42.0911    4.9785 C.ar    1  UNL1        0.0461
     10 C          11.6279   43.1716    5.9166 C.3     1  UNL1        0.0374
     11 C          11.9377   40.9545    4.6465 C.ar    1  UNL1        0.1355
     12 O          13.1865   40.7578    5.2009 O.3     1  UNL1       -0.5056
     13 C          11.4062   39.8851    3.8442 C.ar    1  UNL1        0.0715
     14 C          11.9342   38.5667    3.8206 C.ar    1  UNL1        0.1500
     15 O          13.1350   38.2711    4.4123 O.3     1  UNL1       -0.5042
     16 C          11.1883   37.4978    3.3156 C.ar    1  UNL1        0.0893
     17 C          10.1679   37.7879    2.4074 C.ar    1  UNL1        0.0708
     18 C           9.6887   39.0897    2.3015 C.ar    1  UNL1        0.1367
     19 O           8.7074   39.4144    1.4084 O.3     1  UNL1       -0.5054
     20 C          10.1821   40.0913    3.1524 C.ar    1  UNL1        0.0456
     21 C           9.4641   41.2341    3.5011 C.ar    1  UNL1        0.0789
     22 C           8.0478   41.5510    3.3603 C.2     1  UNL1        0.2515
     23 O           7.3621   41.4871    2.3564 O.2     1  UNL1       -0.2836
     24 N          11.3783   36.1843    3.8699 N.am    1  UNL1       -0.2782
     25 C          10.2626   35.4793    4.3227 C.2     1  UNL1        0.2456
     26 O           9.1202   35.9454    4.2933 O.2     1  UNL1       -0.2702
     27 C          10.4255   34.0910    4.8960 C.2     1  UNL1        0.0318
     28 C           9.1184   33.3408    4.9632 C.3     1  UNL1        0.0358
     29 C          11.5837   33.6368    5.4067 C.2     1  UNL1       -0.0001
     30 C          11.7763   32.5287    6.3327 C.2     1  UNL1       -0.0047
     31 C          10.9470   32.2930    7.3693 C.2     1  UNL1       -0.0240
     32 C          11.3923   31.6620    8.6712 C.3     1  UNL1        0.0490
     33 C          10.4412   30.5532    9.1179 C.3     1  UNL1        0.0072
     34 C          11.6301   32.7875    9.7507 C.3     1  UNL1        0.1167
     35 O          12.5780   33.7281    9.2280 O.3     1  UNL1       -0.3840
     36 C          10.3738   33.5286   10.3684 C.3     1  UNL1        0.0542
     37 C          10.1117   32.8627   11.7428 C.3     1  UNL1        0.0050
     38 C          10.5127   35.1080   10.5289 C.3     1  UNL1        0.1162
     39 O           9.9917   35.5039   11.8185 O.3     1  UNL1       -0.3843
     40 C           9.7845   36.0926    9.5241 C.3     1  UNL1        0.0672
     41 C           9.2286   35.4239    8.2788 C.3     1  UNL1        0.0062
     42 C          10.6409   37.3950    9.2476 C.3     1  UNL1        0.1736
     43 C          10.1046   38.5092    8.2596 C.3     1  UNL1        0.0717
     44 C          11.0675   39.7248    8.2086 C.3     1  UNL1        0.0066
     45 H          13.3964   41.5033    5.7903 H       1  UNL1        0.2922
     46 H          13.5212   39.1332    4.6797 H       1  UNL1        0.2923
     47 H           8.3745   38.5945    0.9803 H       1  UNL1        0.2922
     48 H          12.2220   36.0752    4.4209 H       1  UNL1        0.1553
     49 H          12.2053   34.0687    8.3942 H       1  UNL1        0.2103
     50 H          10.7119   35.9458   12.3003 H       1  UNL1        0.2103
     51 C           8.4413   39.7861   10.7455 C.3     1  UNL1        0.1745
     52 O           8.5300   40.1102    9.3700 O.3     1  UNL1       -0.3490
     53 C           9.6142   36.6895    1.5989 C.2     1  UNL1        0.1217
     54 N           9.8062   36.5808    0.3196 N.2     1  UNL1       -0.1803
     55 N           9.0767   35.5892   -0.2905 N.pl3   1  UNL1       -0.2299
     56 C           7.6192   35.7165   -0.1006 C.3     1  UNL1        0.1283
     57 C           6.7368   34.4452   -0.1764 C.3     1  UNL1        0.0955
     58 N           7.3245   33.1754    0.3138 N.3     1  UNL1       -0.2710
     59 C           8.6096   33.0471   -0.3939 C.3     1  UNL1        0.0955
     60 C           9.5901   34.2051   -0.1867 C.3     1  UNL1        0.1283
     61 C           7.4293   33.1231    1.7933 C.3     1  UNL1        0.0576
     62 C           6.1284   33.6071    2.4952 C.3     1  UNL1        0.0160
     63 C           5.8174   32.6072    3.6065 C.3     1  UNL1        0.0014
     64 C           6.3619   31.3007    3.0725 C.3     1  UNL1        0.0014
     65 C           7.6666   31.7211    2.4129 C.3     1  UNL1        0.0160
     66 O          12.0271   37.1143    8.9021 O.3     1  UNL1       -0.4521
     67 C          12.9804   37.4584    9.8192 C.2     1  UNL1        0.3174
     68 C          14.2559   36.7327    9.5311 C.3     1  UNL1        0.1212
     69 O          12.8304   38.1123   10.8473 O.2     1  UNL1       -0.2501
@<TRIPOS>BOND
     1    51    52    1
     2    52     1    1
     3     1     2    1
     4     1    43    1
     5     2     3    2
     6     3     4    1
     7     4     5    1
     8     5     7    1
     9     5    22    1
    10     5     6    1
    11     7     8    1
    12     8     9   ar
    13     8    21   ar
    14     9    11   ar
    15     9    10    1
    16    11    13   ar
    17    11    12    1
    18    12    45    1
    19    13    14   ar
    20    13    20   ar
    21    14    16   ar
    22    14    15    1
    23    15    46    1
    24    16    17   ar
    25    16    24    1
    26    17    18   ar
    27    17    53    1
    28    53    54    2
    29    54    55    1
    30    55    56    1
    31    55    60    1
    32    56    57    1
    33    57    58    1
    34    58    61    1
    35    58    59    1
    36    61    62    1
    37    61    65    1
    38    62    63    1
    39    63    64    1
    40    64    65    1
    41    59    60    1
    42    18    20   ar
    43    18    19    1
    44    19    47    1
    45    20    21   ar
    46    21    22    1
    47    22    23    2
    48    24    25   am
    49    24    48    1
    50    25    27    1
    51    25    26    2
    52    27    29    2
    53    27    28    1
    54    29    30    1
    55    30    31    2
    56    31    32    1
    57    32    34    1
    58    32    33    1
    59    34    36    1
    60    34    35    1
    61    35    49    1
    62    36    38    1
    63    36    37    1
    64    38    40    1
    65    38    39    1
    66    39    50    1
    67    40    42    1
    68    40    41    1
    69    42    43    1
    70    42    66    1
    71    66    67    1
    72    67    68    1
    73    67    69    2
    74    43    44    1



#	Name:			CHEMBL1670
#	Creating user name:	trannguyen
#	Creation time:		Wed Dec  7 14:36:25 2022


#	Modifying user name:	trannguyen
#	Modification time:	Wed Dec  7 14:36:25 2022

@<TRIPOS>MOLECULE
CHEMBL1670
 18 19 0 0 0
SMALL
GASTEIGER

@<TRIPOS>ATOM
      1 C           2.6687   31.8830    8.5847 C.3     1  UNL1        0.0758
      2 CL          5.7528   32.1974    3.3679 Cl      1  UNL1       -0.0822
      3 C           4.8823   32.1135    4.8490 C.ar    1  UNL1        0.0577
      4 C           3.5533   31.6953    4.8522 C.ar    1  UNL1        0.0111
      5 C           2.8482   31.6180    6.0573 C.ar    1  UNL1       -0.0030
      6 C           3.4623   31.9670    7.2714 C.ar    1  UNL1       -0.0159
      7 C           4.8013   32.3985    7.2414 C.ar    1  UNL1       -0.0030
      8 C           5.5087   32.4639    6.0387 C.ar    1  UNL1        0.0111
      9 C           2.8490   30.5019    9.2391 C.ar    1  UNL1       -0.0054
     10 C           4.1395   30.0177    9.5463 C.ar    1  UNL1       -0.0030
     11 C           4.3300   28.7487   10.0980 C.ar    1  UNL1       -0.0003
     12 C           3.2376   27.9341   10.3632 C.ar    1  UNL1        0.0008
     13 C           1.9524   28.3886   10.0756 C.ar    1  UNL1        0.0111
     14 C           1.7561   29.6567    9.5138 C.ar    1  UNL1        0.0541
     15 CL          0.1210   30.1139    9.1842 Cl      1  UNL1       -0.0826
     16 C           2.9622   33.0924    9.5183 C.3     1  UNL1        0.1666
     17 CL          3.1110   34.6311    8.5996 Cl      1  UNL1       -0.0964
     18 CL          1.6645   33.3329   10.7374 Cl      1  UNL1       -0.0964
@<TRIPOS>BOND
     1     2     3    1
     2     3     4   ar
     3     3     8   ar
     4     4     5   ar
     5     5     6   ar
     6     6     1    1
     7     6     7   ar
     8     1     9    1
     9     1    16    1
    10     9    10   ar
    11     9    14   ar
    12    10    11   ar
    13    11    12   ar
    14    12    13   ar
    15    13    14   ar
    16    14    15    1
    17    16    17    1
    18    16    18    1
    19     7     8   ar



#	Name:			CHEMBL167911
#	Creating user name:	trannguyen
#	Creation time:		Wed Dec  7 14:36:25 2022


#	Modifying user name:	trannguyen
#	Modification time:	Wed Dec  7 14:36:25 2022

@<TRIPOS>MOLECULE
CHEMBL167911
 11 10 0 0 0
SMALL
GASTEIGER

@<TRIPOS>ATOM
      1 P           2.5501   30.3240    9.9008 P.3     1  UNL1        0.5349
      2 O           1.9966   31.5110   10.7033 O.2     1  UNL1       -0.2152
      3 C           1.2048   28.3871   11.0947 C.3     1  UNL1        0.1873
      4 O           2.2632   29.3075   11.2710 O.3     1  UNL1       -0.2609
      5 O           4.1724   30.2028   10.1735 O.3     1  UNL1       -0.2609
      6 C           4.7592   28.9161   10.1258 C.3     1  UNL1        0.1873
      7 O           2.8314   31.3210    8.5567 O.2     1  UNL1       -0.3975
      8 C           2.1090   31.3593    7.3840 C.2     1  UNL1        0.2058
      9 C           2.6122   31.7646    6.2211 C.2     1  UNL1        0.1522
     10 CL          4.2588   32.2721    6.0684 Cl      1  UNL1       -0.0665
     11 CL          1.6128   31.8593    4.8171 Cl      1  UNL1       -0.0665
@<TRIPOS>BOND
     1     3     4    1
     2     4     1    1
     3     1     2    2
     4     1     5    1
     5     1     7    1
     6     5     6    1
     7     7     8    1
     8     8     9    2
     9     9    10    1
    10     9    11    1



#	Name:			CHEMBL169046
#	Creating user name:	trannguyen
#	Creation time:		Wed Dec  7 14:36:24 2022


#	Modifying user name:	trannguyen
#	Modification time:	Wed Dec  7 14:36:24 2022

@<TRIPOS>MOLECULE
CHEMBL169046
 31 34 0 0 0
SMALL
GASTEIGER

@<TRIPOS>ATOM
      1 C           3.2898   32.5635    8.1969 C.3     1  UNL1        0.0000
      2 C           2.7855   33.5677    9.2438 C.3     1  UNL1        0.0000
      3 C           4.0479   34.3516    9.6006 C.3     1  UNL1        0.0000
      4 C           5.0711   33.2390    9.8285 C.3     1  UNL1        0.0003
      5 C           6.5374   33.7213    9.9620 C.3     1  UNL1        0.0046
      6 C           7.3459   32.7669   10.8753 C.3     1  UNL1        0.0254
      7 C           8.8065   33.0769   10.9227 C.2     1  UNL1       -0.0345
      8 C           9.4381   33.8528   10.0166 C.2     1  UNL1       -0.0467
      9 C          10.8407   34.3416   10.2749 C.3     1  UNL1        0.0509
     10 C          10.8039   35.8603   10.4914 C.3     1  UNL1        0.1145
     11 O          12.1292   36.3737   10.5999 O.3     1  UNL1       -0.3841
     12 C          10.0871   36.5909    9.3511 C.3     1  UNL1        0.0299
     13 C           8.7123   35.9841    9.0265 C.3     1  UNL1        0.0062
     14 C           8.7417   34.4418    8.7929 C.3     1  UNL1        0.0150
     15 C           9.5635   34.1560    7.5092 C.3     1  UNL1        0.0040
     16 C           7.2617   33.9045    8.6095 C.3     1  UNL1        0.0038
     17 C           7.1506   32.5865    7.8163 C.3     1  UNL1        0.0003
     18 C           5.6974   32.2687    7.5034 C.3     1  UNL1        0.0000
     19 C           4.7429   32.1772    8.7181 C.3     1  UNL1        0.0000
     20 C           4.8269   30.7927    9.3982 C.3     1  UNL1        0.0000
     21 H          12.5401   35.9510   11.3736 H       1  UNL1        0.2103
     22 C           2.1299   31.2984    6.2773 C.3     1  UNL1        0.0000
     23 C           2.2838   31.4378    7.8044 C.3     1  UNL1        0.0000
     24 C           0.8700   31.7144    8.4126 C.3     1  UNL1        0.0001
     25 C           0.3172   30.5587    9.2661 C.3     1  UNL1        0.0024
     26 C           1.0498   29.2220    9.0367 C.3     1  UNL1        0.0269
     27 C           1.4638   28.5102   10.3504 C.3     1  UNL1        0.0885
     28 C           2.5097   27.4195   10.0856 C.3     1  UNL1        0.0293
     29 C           2.0070   29.4859   11.3977 C.3     1  UNL1        0.0293
     30 O           0.3136   27.8801   10.9212 O.3     1  UNL1       -0.3867
     31 H           0.0266   27.1751   10.3160 H       1  UNL1        0.2102
@<TRIPOS>BOND
     1    23    24    1
     2    23    22    1
     3    24    25    1
     4    25    26    1
     5    26    27    1
     6    27    28    1
     7    27    29    1
     8    27    30    1
     9    30    31    1
    10     1     2    1
    11     1    19    1
    12     1    23    1
    13     2     3    1
    14     3     4    1
    15     4     5    1
    16     4    19    1
    17     5     6    1
    18     5    16    1
    19     6     7    1
    20     7     8    2
    21     8     9    1
    22     8    14    1
    23     9    10    1
    24    10    12    1
    25    10    11    1
    26    11    21    1
    27    12    13    1
    28    13    14    1
    29    14    16    1
    30    14    15    1
    31    16    17    1
    32    17    18    1
    33    18    19    1
    34    19    20    1






#	Name:			CHEMBL1697694
#	Creating user name:	trannguyen
#	Creation time:		Wed Dec  7 14:36:25 2022


#	Modifying user name:	trannguyen
#	Modification time:	Wed Dec  7 14:36:25 2022

@<TRIPOS>MOLECULE
CHEMBL1697694
 23 27 0 0 0
SMALL
GASTEIGER

@<TRIPOS>ATOM
      1 C           5.7743   31.6555    8.1377 C.ar    1  UNL1        0.1443
      2 C           5.7586   30.9495    9.3535 C.ar    1  UNL1        0.0738
      3 C           4.5550   30.4423    9.7909 C.ar    1  UNL1        0.1449
      4 C           3.3619   30.6201    9.0786 C.ar    1  UNL1        0.0580
      5 C           3.3711   31.3120    7.8915 C.ar    1  UNL1        0.1507
      6 O           2.1367   31.4898    7.2392 O.2     1  UNL1       -0.4211
      7 C           2.0265   32.1618    6.0226 C.ar    1  UNL1        0.3482
      8 O           0.9454   32.3043    5.4715 O.2     1  UNL1       -0.2444
      9 C           3.2919   32.6569    5.4941 C.ar    1  UNL1        0.1069
     10 C           4.4812   32.5227    6.0923 C.ar    1  UNL1       -0.0068
     11 C           4.5777   31.8259    7.3804 C.ar    1  UNL1        0.0648
     12 C           5.6218   33.1216    5.3327 C.3     1  UNL1        0.0350
     13 C           4.9934   33.6911    4.0663 C.3     1  UNL1        0.0740
     14 C           3.5364   33.3783    4.2410 C.2     1  UNL1        0.1793
     15 O           2.6779   33.6881    3.4309 O.2     1  UNL1       -0.2911
     16 C           2.2853   30.1087    9.9392 C.3     1  UNL1        0.1376
     17 C           1.1235   29.2456    9.6872 C.2     1  UNL1        0.0259
     18 C           1.1413   28.3421   10.6783 C.2     1  UNL1        0.1722
     19 O           2.2873   28.3662   11.5023 O.2     1  UNL1       -0.4398
     20 C           3.1606   29.0260   10.5756 C.3     1  UNL1        0.3492
     21 O           4.3798   29.6909   10.9548 O.3     1  UNL1       -0.4427
     22 C           8.0734   31.3479    7.5678 C.3     1  UNL1        0.2525
     23 O           6.9245   32.1882    7.6097 O.3     1  UNL1       -0.4712
@<TRIPOS>BOND
     1    22    23    1
     2    23     1    1
     3     1     2   ar
     4     1    11   ar
     5     2     3   ar
     6     3     4   ar
     7     3    21    1
     8     4     5   ar
     9     4    16    1
    10     5     6   ar
    11     5    11   ar
    12     6     7   ar
    13     7     9   ar
    14     7     8    2
    15     9    10   ar
    16     9    14    1
    17    10    11   ar
    18    10    12    1
    19    12    13    1
    20    13    14    1
    21    14    15    2
    22    16    17    1
    23    16    20    1
    24    17    18    2
    25    18    19    1
    26    19    20    1
    27    20    21    1



#	Name:			CHEMBL1727
#	Creating user name:	trannguyen
#	Creation time:		Wed Dec  7 14:36:25 2022


#	Modifying user name:	trannguyen
#	Modification time:	Wed Dec  7 14:36:25 2022

@<TRIPOS>MOLECULE
CHEMBL1727
 28 30 0 0 0
SMALL
GASTEIGER

@<TRIPOS>ATOM
      1 C           8.2226   33.6268   -3.6267 C.3     1  UNL1        0.0288
      2 C           7.9660   34.7977   -4.5552 C.2     1  UNL1       -0.0130
      3 CA          7.4757   34.6625   -5.8193 C.2     1  UNL1        0.1236
      4 N           7.2530   35.7804   -6.5743 N.am    1  UNL1       -0.2423
      5 C           6.6015   36.1416   -7.6931 C.2     1  UNL1        0.2506
      6 O           5.9272   35.4758   -8.4506 O.2     1  UNL1       -0.2726
      7 CA          6.9312   37.6484   -7.4429 C.3     1  UNL1        0.1784
      8 C           7.8384   37.0843   -6.3012 C.3     1  UNL1        0.1550
      9 S           7.4274   37.5461   -4.6044 S.3     1  UNL1       -0.1142
     10 C           8.2720   36.1220   -3.8798 C.3     1  UNL1        0.0826
     11 C           7.1858   33.2768   -6.3639 C.2     1  UNL1        0.3514
     12 O           8.0629   32.4748   -6.6571 O.2     1  UNL1       -0.2437
     13 OXT         5.8946   32.9395   -6.5340 O.3     1  UNL1       -0.4763
     14 HXT         5.2104   33.6234   -6.3674 H       1  UNL1        0.2954
     15 N           5.7603   38.4892   -7.0810 N.am    1  UNL1       -0.2950
     16 C           5.3657   39.5726   -7.8397 C.2     1  UNL1        0.2411
     17 O           5.9193   39.8676   -8.8973 O.2     1  UNL1       -0.2733
     18 H           5.2530   38.3731   -6.2045 H       1  UNL1        0.1499
     19 CA          4.1756   40.3766   -7.2421 C.3     1  UNL1        0.1511
     20 N           3.2578   40.7687   -8.3495 N.3     1  UNL1       -0.3116
     21 H1          2.4206   41.1635   -7.9167 H       1  UNL1        0.1195
     22 H2          2.9314   39.9075   -8.7943 H       1  UNL1        0.1195
     23 C           4.6274   41.5499   -6.3791 C.ar    1  UNL1        0.0005
     24 C           5.9901   41.8995   -6.3450 C.ar    1  UNL1       -0.0025
     25 C           6.4568   42.9170   -5.5065 C.ar    1  UNL1       -0.0003
     26 C           5.5729   43.5985   -4.6757 C.ar    1  UNL1       -0.0000
     27 C           4.2205   43.2732   -4.6945 C.ar    1  UNL1       -0.0003
     28 C           3.7515   42.2634   -5.5410 C.ar    1  UNL1       -0.0025
@<TRIPOS>BOND
     1     1     2    1
     2     2     3    2
     3     2    10    1
     4     3     4    1
     5     3    11    1
     6    11    12    2
     7    11    13    1
     8    13    14    1
     9     4     5   am
    10     4     8    1
    11     5     7    1
    12     5     6    2
    13     7     8    1
    14     7    15    1
    15    15    16   am
    16    15    18    1
    17    16    17    2
    18    19    20    1
    19    19    23    1
    20    19    16    1
    21    20    21    1
    22    20    22    1
    23    23    24   ar
    24    23    28   ar
    25    24    25   ar
    26    25    26   ar
    27    26    27   ar
    28    27    28   ar
    29     8     9    1
    30     9    10    1



#	Name:			CHEMBL1729
#	Creating user name:	trannguyen
#	Creation time:		Wed Dec  7 14:36:25 2022


#	Modifying user name:	trannguyen
#	Modification time:	Wed Dec  7 14:36:25 2022

@<TRIPOS>MOLECULE
CHEMBL1729
 35 37 0 0 0
SMALL
GASTEIGER

@<TRIPOS>ATOM
      1 C           7.5684   31.9334    9.0068 C.3     1  UNL1        0.1017
      2 C           8.5064   31.0371    8.1730 C.3     1  UNL1        0.0394
      3 C           8.3155   31.1590    6.6508 C.3     1  UNL1        0.0739
      4 N           8.3063   32.5519    6.1813 N.3     1  UNL1       -0.2704
      5 C           7.3040   33.3270    6.9340 C.3     1  UNL1        0.1037
      6 C           7.5631   33.3804    8.4499 C.3     1  UNL1        0.1490
      7 C           5.7281   30.6524   10.1715 C.2     1  UNL1        0.2488
      8 O           6.4106   30.3566   11.1754 O.2     1  UNL1       -0.2700
      9 N           6.2043   31.3790    9.1065 N.am    1  UNL1       -0.2999
     10 H           5.5503   31.5894    8.3397 H       1  UNL1        0.1498
     11 C           3.2079   31.0731    9.8470 C.ar    1  UNL1        0.1443
     12 C           1.9107   30.5472    9.7596 C.ar    1  UNL1        0.0520
     13 C           1.6626   29.1758    9.8879 C.ar    1  UNL1        0.0553
     14 N           0.3667   28.6978    9.6182 N.pl3   1  UNL1       -0.3563
     15 C           2.7603   28.3174   10.0662 C.ar    1  UNL1        0.0709
     16 CL          2.5234   26.6021   10.1112 Cl      1  UNL1       -0.0810
     17 C           4.0481   28.8232   10.2174 C.ar    1  UNL1        0.0202
     18 C           4.2967   30.1995   10.0941 C.ar    1  UNL1        0.0882
     19 H          -0.3795   29.3138    9.9263 H       1  UNL1        0.1424
     20 H           0.2280   27.7366    9.9264 H       1  UNL1        0.1424
     21 C           2.3398   33.2799    9.8467 C.3     1  UNL1        0.2525
     22 O           3.4699   32.4148    9.7671 O.3     1  UNL1       -0.4712
     23 O           8.8089   34.0417    8.7516 O.3     1  UNL1       -0.3505
     24 C           9.0706   34.1424   10.1510 C.3     1  UNL1        0.1741
     25 C           8.0621   32.6328    4.7268 C.3     1  UNL1        0.0760
     26 C           7.4431   33.9761    4.2917 C.3     1  UNL1        0.0646
     27 C           6.3605   33.8019    3.2365 C.3     1  UNL1        0.2068
     28 O           5.7168   32.5352    3.4390 O.3     1  UNL1       -0.4754
     29 C           4.3884   32.5146    3.7664 C.ar    1  UNL1        0.1387
     30 C           3.6398   31.3682    4.0410 C.ar    1  UNL1        0.0392
     31 C           2.2962   31.4665    4.4058 C.ar    1  UNL1        0.0327
     32 C           1.6970   32.7133    4.4969 C.ar    1  UNL1        0.1403
     33 F           0.4153   32.7995    4.8752 F       1  UNL1       -0.2042
     34 C           2.4120   33.8670    4.2042 C.ar    1  UNL1        0.0327
     35 C           3.7553   33.7655    3.8231 C.ar    1  UNL1        0.0392
@<TRIPOS>BOND
     1    21    22    1
     2    22    11    1
     3    11    12   ar
     4    11    18   ar
     5    12    13   ar
     6    13    14    1
     7    13    15   ar
     8    14    19    1
     9    14    20    1
    10    15    16    1
    11    15    17   ar
    12    17    18   ar
    13    18     7    1
    14     7     8    2
    15     7     9   am
    16     9     1    1
    17     9    10    1
    18     1     2    1
    19     1     6    1
    20     2     3    1
    21     3     4    1
    22     4    25    1
    23     4     5    1
    24    25    26    1
    25    26    27    1
    26    27    28    1
    27    28    29    1
    28    29    30   ar
    29    29    35   ar
    30    30    31   ar
    31    31    32   ar
    32    32    33    1
    33    32    34   ar
    34    34    35   ar
    35     5     6    1
    36     6    23    1
    37    23    24    1



#	Name:			CHEMBL174
#	Creating user name:	trannguyen
#	Creation time:		Wed Dec  7 14:36:25 2022


#	Modifying user name:	trannguyen
#	Modification time:	Wed Dec  7 14:36:25 2022

@<TRIPOS>MOLECULE
CHEMBL174
 28 30 0 0 0
SMALL
GASTEIGER

@<TRIPOS>ATOM
      1 C           8.8334   32.2008    7.5112 C.3     1  UNL1        0.0131
      2 C           9.1499   32.1349    9.0169 C.3     1  UNL1        0.0679
      3 C          10.3377   31.1843    9.2092 C.3     1  UNL1        0.0131
      4 S           7.6690   31.3861    9.8600 S.3     1  UNL1       -0.1185
      5 C           7.1196   32.9497   10.6335 C.3     1  UNL1        0.1509
      6 CA          5.9478   33.7153    9.9715 C.3     1  UNL1        0.1777
      7 C           7.0824   34.4957    9.2486 C.2     1  UNL1        0.2471
      8 O           7.2375   35.1590    8.2540 O.2     1  UNL1       -0.2730
      9 N           8.0244   33.9937   10.1188 N.am    1  UNL1       -0.2597
     10 CA          9.3311   33.5574    9.6068 C.3     1  UNL1        0.1843
     11 N           5.0167   32.9249    9.1441 N.am    1  UNL1       -0.2950
     12 C           3.6804   32.8087    9.4678 C.2     1  UNL1        0.2411
     13 O           3.1939   33.3495   10.4592 O.2     1  UNL1       -0.2733
     14 H           5.3450   32.3716    8.3578 H       1  UNL1        0.1499
     15 CA          2.8688   31.8626    8.5539 C.3     1  UNL1        0.1511
     16 N           1.5881   32.5253    8.2073 N.3     1  UNL1       -0.3116
     17 H1          1.1272   31.9450    7.5050 H       1  UNL1        0.1195
     18 H2          1.8097   33.4017    7.7327 H       1  UNL1        0.1195
     19 C           2.6553   30.4953    9.1800 C.ar    1  UNL1        0.0005
     20 C           1.3562   29.9714    9.2815 C.ar    1  UNL1       -0.0025
     21 C           1.1373   28.7136    9.8494 C.ar    1  UNL1       -0.0003
     22 C           2.2122   27.9581   10.3128 C.ar    1  UNL1       -0.0000
     23 C           3.5076   28.4554   10.2057 C.ar    1  UNL1       -0.0003
     24 C           3.7275   29.7132    9.6436 C.ar    1  UNL1       -0.0025
     25 C          10.3577   33.6907   10.7450 C.2     1  UNL1        0.3329
     26 O          10.2233   33.2217   11.8652 O.2     1  UNL1       -0.2484
     27 OXT        11.4936   34.3411   10.3828 O.3     1  UNL1       -0.4790
     28 HXT        11.4757   34.5341    9.4227 H       1  UNL1        0.2951
@<TRIPOS>BOND
     1     1     2    1
     2     2     3    1
     3     2     4    1
     4     2    10    1
     5     4     5    1
     6     5     6    1
     7     5     9    1
     8     6     7    1
     9     6    11    1
    10    11    12   am
    11    11    14    1
    12    12    13    2
    13    15    16    1
    14    15    19    1
    15    15    12    1
    16    16    17    1
    17    16    18    1
    18    19    20   ar
    19    19    24   ar
    20    20    21   ar
    21    21    22   ar
    22    22    23   ar
    23    23    24   ar
    24     7     8    2
    25     7     9   am
    26     9    10    1
    27    10    25    1
    28    25    26    2
    29    25    27    1
    30    27    28    1



#	Name:			CHEMBL1741
#	Creating user name:	trannguyen
#	Creation time:		Wed Dec  7 14:36:25 2022


#	Modifying user name:	trannguyen
#	Modification time:	Wed Dec  7 14:36:25 2022

@<TRIPOS>MOLECULE
CHEMBL1741
 56 58 0 0 0
SMALL
GASTEIGER

@<TRIPOS>ATOM
      1 C          13.6897   34.7531   -5.1936 C.3     1  UNL1        0.1953
      2 O          12.2701   34.9566   -5.3380 O.3     1  UNL1       -0.4497
      3 C          11.2823   34.1056   -5.3467 C.2     1  UNL1        0.3188
      4 O          11.4377   32.8887   -5.1176 O.2     1  UNL1       -0.2500
      5 C           9.8710   34.6540   -5.7450 C.3     1  UNL1        0.1263
      6 C          10.0723   35.6485   -6.8812 C.3     1  UNL1        0.0142
      7 C           8.8388   34.9220   -4.6163 C.3     1  UNL1        0.1306
      8 C           7.6831   35.9474   -4.9773 C.3     1  UNL1        0.0575
      9 C           6.9099   35.3517   -6.2238 C.3     1  UNL1        0.0051
     10 C           7.7889   37.5147   -5.2141 C.3     1  UNL1        0.1447
     11 C           8.9227   38.5784   -4.6427 C.3     1  UNL1        0.1183
     12 C           8.2624   39.7103   -3.8425 C.3     1  UNL1        0.0321
     13 C          10.0433   37.8847   -3.8159 C.3     1  UNL1        0.0370
     14 C          11.0475   38.7611   -3.0232 C.3     1  UNL1        0.0601
     15 C          10.6808   39.0464   -1.5711 C.3     1  UNL1        0.0078
     16 C          12.4362   38.1430   -3.1588 C.2     1  UNL1        0.1523
     17 O          13.1248   38.4898   -4.1186 O.2     1  UNL1       -0.2960
     18 C          12.9051   37.0949   -2.1513 C.3     1  UNL1        0.0869
     19 C          13.8636   37.7243   -1.1391 C.3     1  UNL1        0.0104
     20 C          13.3930   35.7371   -2.7039 C.3     1  UNL1        0.1451
     21 O          12.2372   34.8961   -2.7722 O.3     1  UNL1       -0.3815
     22 C          14.3142   35.5780   -3.9784 C.3     1  UNL1        0.1497
     23 C          15.6376   35.0009   -3.4605 C.3     1  UNL1        0.0356
     24 O          14.7965   36.8256   -4.5056 O.3     1  UNL1       -0.3808
     25 H          11.6455   35.2998   -3.4163 H       1  UNL1        0.2105
     26 H          14.0494   37.4046   -4.7610 H       1  UNL1        0.2105
     27 C          14.7097   32.8300   -6.7017 C.3     1  UNL1        0.0039
     28 C          14.0651   33.2647   -5.3852 C.3     1  UNL1        0.0462
     29 O           9.5004   39.1520   -5.8728 O.3     1  UNL1       -0.3535
     30 C           9.8139   40.5383   -5.9844 C.3     1  UNL1        0.1740
     31 O           9.2040   34.9943   -3.1981 O.3     1  UNL1       -0.3323
     32 C           8.0848   35.0084   -2.2427 C.3     1  UNL1        0.2375
     33 C           7.5349   33.5741   -1.8583 C.3     1  UNL1        0.0910
     34 C           7.6059   33.2917   -0.3174 C.3     1  UNL1        0.1246
     35 C           6.4353   34.0271    0.3830 C.3     1  UNL1        0.0324
     36 C           9.0316   33.7375    0.0878 C.3     1  UNL1        0.1623
     37 O          10.0232   33.0668   -0.7245 O.3     1  UNL1       -0.3796
     38 C           9.1848   35.2491   -0.0642 C.3     1  UNL1        0.1468
     39 C           8.8294   35.9434    1.2591 C.3     1  UNL1        0.0348
     40 O           8.3304   35.7968   -1.0746 O.3     1  UNL1       -0.3304
     41 H          10.0421   33.4795   -1.6069 H       1  UNL1        0.2105
     42 O           7.4458   31.8749   -0.0268 O.3     1  UNL1       -0.3532
     43 C           7.7411   31.4930    1.3304 C.3     1  UNL1        0.1740
     44 O           6.4408   38.0753   -5.4171 O.3     1  UNL1       -0.3287
     45 C           5.9425   38.6083   -6.6735 C.3     1  UNL1        0.2643
     46 O           6.9603   38.9413   -7.6294 O.3     1  UNL1       -0.3311
     47 C           6.6399   40.0298   -8.5049 C.3     1  UNL1        0.1194
     48 C           7.6749   40.1191   -9.6298 C.3     1  UNL1        0.0322
     49 C           6.6779   41.2734   -7.6395 C.3     1  UNL1        0.0482
     50 C           5.4700   41.2641   -6.6904 C.3     1  UNL1        0.0921
     51 C           4.9854   39.8193   -6.2947 C.3     1  UNL1        0.1815
     52 O           3.7371   39.6072   -7.0189 O.3     1  UNL1       -0.3783
     53 H           3.0924   40.2554   -6.6770 H       1  UNL1        0.2106
     54 N           5.6359   42.2967   -5.6383 N.3     1  UNL1       -0.2692
     55 C           5.2613   41.8758   -4.2961 C.3     1  UNL1        0.0897
     56 C           6.9439   42.9419   -5.6428 C.3     1  UNL1        0.0897
@<TRIPOS>BOND
     1    27    28    1
     2    28     1    1
     3     1     2    1
     4     1    22    1
     5     2     3    1
     6     3     4    2
     7     3     5    1
     8     5     6    1
     9     5     7    1
    10     7     8    1
    11     7    31    1
    12    31    32    1
    13    32    33    1
    14    32    40    1
    15    33    34    1
    16    34    36    1
    17    34    42    1
    18    34    35    1
    19    42    43    1
    20    36    38    1
    21    36    37    1
    22    37    41    1
    23    38    39    1
    24    38    40    1
    25     8     9    1
    26     8    10    1
    27    10    11    1
    28    10    44    1
    29    45    46    1
    30    45    51    1
    31    45    44    1
    32    46    47    1
    33    47    48    1
    34    47    49    1
    35    49    50    1
    36    50    54    1
    37    50    51    1
    38    54    55    1
    39    54    56    1
    40    51    52    1
    41    52    53    1
    42    11    12    1
    43    11    29    1
    44    11    13    1
    45    29    30    1
    46    13    14    1
    47    14    16    1
    48    14    15    1
    49    16    17    2
    50    16    18    1
    51    18    19    1
    52    18    20    1
    53    20    22    1
    54    20    21    1
    55    21    25    1
    56    22    23    1
    57    22    24    1
    58    24    26    1



#	Name:			CHEMBL1751
#	Creating user name:	trannguyen
#	Creation time:		Wed Dec  7 14:36:25 2022


#	Modifying user name:	trannguyen
#	Modification time:	Wed Dec  7 14:36:25 2022

@<TRIPOS>MOLECULE
CHEMBL1751
 61 68 0 0 0
SMALL
GASTEIGER

@<TRIPOS>ATOM
      1 C           6.9879   32.2032    3.3174 C.3     1  UNL1        0.1715
      2 C           7.5263   31.5641    2.0323 C.3     1  UNL1        0.1450
      3 O           6.8842   30.2976    1.8504 O.3     1  UNL1       -0.3817
      4 C           7.2598   32.4312    0.8185 C.3     1  UNL1        0.0931
      5 C           7.7043   33.8733    1.0358 C.3     1  UNL1        0.2376
      6 O           7.2528   34.4233    2.2650 O.3     1  UNL1       -0.3304
      7 C           7.4930   33.6506    3.4462 C.3     1  UNL1        0.1473
      8 C           8.9401   33.7058    3.9346 C.3     1  UNL1        0.0348
      9 H           5.9779   30.4481    2.1914 H       1  UNL1        0.2104
     10 O           5.5325   32.0874    3.3289 O.3     1  UNL1       -0.3279
     11 C           2.3787   32.2174    5.6042 C.3     1  UNL1        0.1715
     12 C           3.4779   33.3008    5.7142 C.3     1  UNL1        0.1450
     13 O           3.3962   34.0296    6.9458 O.3     1  UNL1       -0.3817
     14 C           4.8722   32.7040    5.6206 C.3     1  UNL1        0.0931
     15 C           5.0192   31.5934    4.5803 C.3     1  UNL1        0.2377
     16 O           3.8731   30.7665    4.4009 O.3     1  UNL1       -0.3304
     17 C           2.6193   31.4426    4.3012 C.3     1  UNL1        0.1473
     18 C           2.4795   32.2969    3.0390 C.3     1  UNL1        0.0348
     19 H           2.4624   34.2432    7.1037 H       1  UNL1        0.2104
     20 O           2.4578   31.3752    6.7753 O.3     1  UNL1       -0.3279
     21 C           4.5956   31.4712    8.9963 C.3     1  UNL1        0.0348
     22 C           3.2490   31.6214    9.6947 C.3     1  UNL1        0.1469
     23 O           2.3516   32.4235    8.9105 O.3     1  UNL1       -0.3304
     24 C           1.6327   31.7625    7.8748 C.3     1  UNL1        0.2377
     25 C           0.8947   30.5370    8.3976 C.3     1  UNL1        0.0931
     26 C           1.8932   29.5723    9.0096 C.3     1  UNL1        0.1446
     27 O           1.1936   28.4574    9.5851 O.3     1  UNL1       -0.3817
     28 C           2.6775   30.2665   10.1278 C.3     1  UNL1        0.1644
     29 O           1.7946   30.4781   11.2449 O.3     1  UNL1       -0.3795
     30 H           0.7482   27.9906    8.8552 H       1  UNL1        0.2104
     31 H           1.2825   29.6451   11.3026 H       1  UNL1        0.2105
     32 O           9.1138   34.0362    0.8677 O.3     1  UNL1       -0.3330
     33 C           9.5155   35.4229    0.8425 C.3     1  UNL1        0.1178
     34 C          10.9561   35.5075    0.3266 C.3     1  UNL1        0.0296
     35 C          10.9736   35.4782   -1.1925 C.3     1  UNL1        0.0025
     36 C          10.1920   36.6707   -1.8398 C.3     1  UNL1        0.0003
     37 C          11.2443   37.7379   -2.2076 C.3     1  UNL1        0.0000
     38 C           9.3135   36.0989   -3.0138 C.3     1  UNL1        0.0047
     39 C           9.9605   35.1718   -4.0448 C.3     1  UNL1        0.0294
     40 C          10.6800   35.8797   -5.1683 C.3     1  UNL1        0.1128
     41 O          11.0692   34.9152   -6.1526 O.3     1  UNL1       -0.3844
     42 C           9.9228   37.0471   -5.8454 C.3     1  UNL1        0.0508
     43 C          11.0716   37.8969   -6.4917 C.3     1  UNL1        0.0051
     44 C           8.8906   36.6552   -6.9813 C.3     1  UNL1        0.0265
     45 C           8.1828   38.0075   -7.1988 C.3     1  UNL1        0.0067
     46 C           8.0017   38.6073   -5.7996 C.3     1  UNL1        0.0273
     47 C           9.0524   37.9302   -4.8706 C.3     1  UNL1        0.0906
     48 O           9.8101   38.9781   -4.2827 O.3     1  UNL1       -0.3867
     49 C           8.3855   37.0995   -3.7226 C.3     1  UNL1        0.0248
     50 C           7.5222   37.8510   -2.6981 C.3     1  UNL1        0.0023
     51 C           8.2296   38.3342   -1.4396 C.3     1  UNL1        0.0002
     52 C           9.2340   37.3520   -0.8020 C.3     1  UNL1        0.0024
     53 C           8.5279   36.2910    0.0415 C.3     1  UNL1        0.0296
     54 H          11.5444   34.2037   -5.6841 H       1  UNL1        0.2103
     55 H          10.0400   39.6382   -4.9578 H       1  UNL1        0.2102
     56 C           7.8708   35.5549   -6.7271 C.2     1  UNL1        0.0053
     57 C           7.9329   34.2587   -7.0493 C.2     1  UNL1        0.0769
     58 C           6.6706   33.6437   -6.6800 C.2     1  UNL1        0.3412
     59 O           6.3335   32.5073   -7.0037 O.2     1  UNL1       -0.2449
     60 O           5.9403   34.5307   -5.9696 O.3     1  UNL1       -0.4408
     61 C           6.6299   35.7852   -5.9395 C.3     1  UNL1        0.2314
@<TRIPOS>BOND
     1    21    22    1
     2    22    23    1
     3    22    28    1
     4    23    24    1
     5    24    25    1
     6    24    20    1
     7    20    11    1
     8    11    12    1
     9    11    17    1
    10    12    13    1
    11    12    14    1
    12    13    19    1
    13    14    15    1
    14    15    10    1
    15    15    16    1
    16    10     1    1
    17     1     2    1
    18     1     7    1
    19     2     3    1
    20     2     4    1
    21     3     9    1
    22     4     5    1
    23     5    32    1
    24     5     6    1
    25    33    34    1
    26    33    53    1
    27    33    32    1
    28    34    35    1
    29    35    36    1
    30    36    37    1
    31    36    38    1
    32    36    52    1
    33    38    39    1
    34    38    49    1
    35    39    40    1
    36    40    42    1
    37    40    41    1
    38    41    54    1
    39    42    43    1
    40    42    44    1
    41    42    47    1
    42    44    56    1
    43    44    45    1
    44    56    57    2
    45    56    61    1
    46    57    58    1
    47    58    59    2
    48    58    60    1
    49    60    61    1
    50    45    46    1
    51    46    47    1
    52    47    48    1
    53    47    49    1
    54    48    55    1
    55    49    50    1
    56    50    51    1
    57    51    52    1
    58    52    53    1
    59     6     7    1
    60     7     8    1
    61    16    17    1
    62    17    18    1
    63    25    26    1
    64    26    27    1
    65    26    28    1
    66    27    30    1
    67    28    29    1
    68    29    31    1



#	Name:			CHEMBL1752
#	Creating user name:	trannguyen
#	Creation time:		Wed Dec  7 14:36:25 2022


#	Modifying user name:	trannguyen
#	Modification time:	Wed Dec  7 14:36:25 2022

@<TRIPOS>MOLECULE
CHEMBL1752
 20 21 0 0 0
SMALL
GASTEIGER

@<TRIPOS>ATOM
      1 C           2.5042   32.8120    5.0391 C.3     1  UNL1        0.1383
      2 N           3.0611   32.3249    6.2858 N.ar    1  UNL1       -0.2454
      3 C           2.2883   31.4506    7.0655 C.ar    1  UNL1        0.2832
      4 O           1.1601   31.0725    6.7768 O.2     1  UNL1       -0.2652
      5 C           2.9549   31.0404    8.2579 C.ar    1  UNL1        0.1528
      6 C           4.1983   31.4821    8.6020 C.ar    1  UNL1        0.1696
      7 N           4.6109   30.9662    9.7912 N.ar    1  UNL1       -0.2063
      8 C           3.6056   30.2175   10.1927 C.ar    1  UNL1        0.1802
      9 N           2.5748   30.2193    9.2865 N.ar    1  UNL1       -0.3015
     10 N           4.9030   32.3591    7.8138 N.ar    1  UNL1       -0.2628
     11 C           6.2161   32.8393    8.1951 C.3     1  UNL1        0.1366
     12 C           4.3409   32.8086    6.6212 C.ar    1  UNL1        0.3350
     13 O           4.9392   33.6028    5.8856 O.2     1  UNL1       -0.2461
     14 C           1.3437   29.4576    9.4180 C.3     1  UNL1        0.1394
     15 C           1.3318   28.5442   10.6520 C.3     1  UNL1        0.1622
     16 O           0.0203   28.0320   10.9328 O.3     1  UNL1       -0.3799
     17 H          -0.3799   27.7085   10.0997 H       1  UNL1        0.2105
     18 C           2.2665   27.3405   10.4730 C.3     1  UNL1        0.1683
     19 O           2.2400   26.5201   11.6403 O.3     1  UNL1       -0.3794
     20 H           1.2962   26.3817   11.8559 H       1  UNL1        0.2105
@<TRIPOS>BOND
     1     1     2    1
     2     2     3   ar
     3     2    12   ar
     4     3     4    2
     5     3     5   ar
     6     5     6   ar
     7     5     9   ar
     8     6     7   ar
     9     6    10   ar
    10     7     8   ar
    11     8     9   ar
    12     9    14    1
    13    14    15    1
    14    15    16    1
    15    15    18    1
    16    16    17    1
    17    18    19    1
    18    19    20    1
    19    10    11    1
    20    10    12   ar
    21    12    13    2



#	Name:			CHEMBL1753
#	Creating user name:	trannguyen
#	Creation time:		Wed Dec  7 14:36:25 2022


#	Modifying user name:	trannguyen
#	Modification time:	Wed Dec  7 14:36:25 2022

@<TRIPOS>MOLECULE
CHEMBL1753
 31 32 0 0 0
SMALL
GASTEIGER

@<TRIPOS>ATOM
      1 C           5.0425   32.2415    7.7932 C.3     1  UNL1        0.1162
      2 C           3.4942   32.0017    7.9763 C.3     1  UNL1        0.1645
      3 O           3.1236   30.8002    8.6735 O.3     1  UNL1       -0.3410
      4 C           2.5674   30.8684    9.9845 C.3     1  UNL1        0.1918
      5 C           1.6673   32.0868   10.3020 C.3     1  UNL1        0.1772
      6 O           0.3651   31.9736    9.7081 O.3     1  UNL1       -0.3787
      7 C           2.3024   33.3787    9.7992 C.3     1  UNL1        0.1697
      8 O           3.4281   33.7822   10.5802 O.3     1  UNL1       -0.3794
      9 C           2.6336   33.2352    8.3102 C.3     1  UNL1        0.1684
     10 O           3.2008   34.4340    7.7849 O.3     1  UNL1       -0.3794
     11 H           0.0512   31.0713    9.9220 H       1  UNL1        0.2106
     12 H           3.9101   33.0100   10.9194 H       1  UNL1        0.2105
     13 H           2.5179   35.1262    7.8490 H       1  UNL1        0.2105
     14 S           1.5909   29.3381   10.3141 S.3     1  UNL1       -0.1086
     15 C           2.9497   28.2109   10.7022 C.3     1  UNL1        0.0716
     16 C           6.2488   33.0384    5.7453 C.2     1  UNL1        0.2370
     17 O           6.7449   34.0103    6.3282 O.2     1  UNL1       -0.2737
     18 N           5.4141   32.1376    6.3705 N.am    1  UNL1       -0.3013
     19 H           5.0577   31.3608    5.8204 H       1  UNL1        0.1495
     20 C           7.9948   33.1798    2.3889 C.3     1  UNL1        0.0178
     21 C           8.0054   32.9508    3.9042 C.3     1  UNL1        0.0267
     22 C           6.5385   32.7594    4.2631 C.3     1  UNL1        0.1348
     23 N           5.8745   33.7551    3.3908 N.3     1  UNL1       -0.2653
     24 C           4.4482   33.4685    3.2306 C.3     1  UNL1        0.0900
     25 C           6.5832   33.7174    2.1025 C.3     1  UNL1        0.0725
     26 C           8.3361   31.8800    1.6312 C.3     1  UNL1        0.0014
     27 C           8.9368   32.5670   -0.7283 C.3     1  UNL1        0.0000
     28 C           7.9047   31.8822    0.1601 C.3     1  UNL1        0.0000
     29 C           6.0338   31.4544    8.6841 C.3     1  UNL1        0.1003
     30 C           6.4955   32.2420    9.9128 C.3     1  UNL1        0.0193
     31 CL          7.5191   30.9587    7.8195 Cl      1  UNL1       -0.1132
@<TRIPOS>BOND
     1    27    28    1
     2    28    26    1
     3    20    21    1
     4    20    25    1
     5    20    26    1
     6    21    22    1
     7    22    23    1
     8    22    16    1
     9    16    17    2
    10    16    18   am
    11    18    19    1
    12     1     2    1
    13     1    18    1
    14    29    30    1
    15    29    31    1
    16    29     1    1
    17     2     3    1
    18     2     9    1
    19     3     4    1
    20     4    14    1
    21     4     5    1
    22    14    15    1
    23     5     6    1
    24     5     7    1
    25     6    11    1
    26     7     9    1
    27     7     8    1
    28     8    12    1
    29     9    10    1
    30    10    13    1
    31    23    24    1
    32    23    25    1



#	Name:			CHEMBL1754
#	Creating user name:	trannguyen
#	Creation time:		Wed Dec  7 14:36:25 2022


#	Modifying user name:	trannguyen
#	Modification time:	Wed Dec  7 14:36:25 2022

@<TRIPOS>MOLECULE
CHEMBL1754
 28 31 0 0 0
SMALL
GASTEIGER

@<TRIPOS>ATOM
      1 N           5.2483   33.7553    9.3949 N.am    1  UNL1       -0.2790
      2 C           6.1625   32.7119    9.0342 C.3     1  UNL1        0.0945
      3 C           5.6016   32.1787    7.7215 C.3     1  UNL1        0.0370
      4 C           4.0174   32.2908    7.8994 C.3     1  UNL1        0.1081
      5 C           3.9782   33.5336    8.8708 C.2     1  UNL1        0.2324
      6 O           2.9839   34.1945    9.2106 O.2     1  UNL1       -0.2742
      7 C           3.3810   31.0592    8.6455 C.ar    1  UNL1       -0.0108
      8 C           1.9909   30.8772    8.7815 C.ar    1  UNL1       -0.0035
      9 C           1.4570   29.7871    9.4805 C.ar    1  UNL1       -0.0003
     10 C           2.2972   28.8633   10.0890 C.ar    1  UNL1       -0.0000
     11 C           3.6733   29.0403   10.0146 C.ar    1  UNL1       -0.0003
     12 C           4.2070   30.1276    9.3112 C.ar    1  UNL1       -0.0035
     13 C           3.2570   32.4544    6.5546 C.ar    1  UNL1       -0.0108
     14 C           2.8566   31.3676    5.7586 C.ar    1  UNL1       -0.0035
     15 C           2.1875   31.5584    4.5403 C.ar    1  UNL1       -0.0003
     16 C           1.9141   32.8406    4.0773 C.ar    1  UNL1       -0.0000
     17 C           2.3488   33.9359    4.8127 C.ar    1  UNL1       -0.0003
     18 C           3.0226   33.7439    6.0266 C.ar    1  UNL1       -0.0035
     19 C           7.0411   35.0783   10.5413 C.3     1  UNL1        0.0233
     20 C           5.5663   34.7198   10.4409 C.3     1  UNL1        0.0935
     21 C           6.3321   32.8170    6.4995 C.3     1  UNL1        0.0201
     22 C           6.9136   31.9420    5.3613 C.3     1  UNL1        0.0723
     23 N           5.9666   31.8159    4.2208 N.3     1  UNL1       -0.2685
     24 C           5.6891   33.1035    3.5393 C.3     1  UNL1        0.1046
     25 C           6.8499   33.6027    2.6661 C.3     1  UNL1        0.1595
     26 O           7.1697   32.6454    1.6498 O.3     1  UNL1       -0.3508
     27 C           7.5422   31.3989    2.2515 C.3     1  UNL1        0.1595
     28 C           6.4261   30.8635    3.1715 C.3     1  UNL1        0.1046
@<TRIPOS>BOND
     1    19    20    1
     2    20     1    1
     3     1     2    1
     4     1     5   am
     5     2     3    1
     6     3    21    1
     7     3     4    1
     8    21    22    1
     9    22    23    1
    10    23    24    1
    11    23    28    1
    12    24    25    1
    13    25    26    1
    14    26    27    1
    15    27    28    1
    16     4     7    1
    17     4    13    1
    18     4     5    1
    19     7     8   ar
    20     7    12   ar
    21     8     9   ar
    22     9    10   ar
    23    10    11   ar
    24    11    12   ar
    25    13    14   ar
    26    13    18   ar
    27    14    15   ar
    28    15    16   ar
    29    16    17   ar
    30    17    18   ar
    31     5     6    2



#	Name:			CHEMBL1771
#	Creating user name:	trannguyen
#	Creation time:		Wed Dec  7 14:36:25 2022


#	Modifying user name:	trannguyen
#	Modification time:	Wed Dec  7 14:36:25 2022

@<TRIPOS>MOLECULE
CHEMBL1771
 21 23 0 0 0
SMALL
GASTEIGER

@<TRIPOS>ATOM
      1 C           1.6173   31.1052    8.8089 C.3     1  UNL1        0.1815
      2 N           2.4552   31.6396    7.6827 N.3     1  UNL1       -0.2573
      3 C           3.0411   32.9680    8.0176 C.3     1  UNL1        0.0783
      4 C           4.0942   33.4132    6.9765 C.3     1  UNL1        0.0500
      5 C           3.5808   33.1446    5.6015 C.ar    1  UNL1        0.0060
      6 S           4.3433   33.7136    4.1970 S.2     1  UNL1       -0.0910
      7 C           3.1946   32.9246    3.2012 C.ar    1  UNL1        0.0348
      8 C           2.2457   32.2476    3.9386 C.ar    1  UNL1        0.0042
      9 C           2.4700   32.3671    5.3447 C.ar    1  UNL1       -0.0036
     10 C           1.6392   31.7668    6.4454 C.3     1  UNL1        0.1000
     11 C           2.2119   29.8472    9.4462 C.ar    1  UNL1        0.0135
     12 C           3.6131   29.6769    9.4724 C.ar    1  UNL1       -0.0016
     13 C           4.1940   28.5398   10.0394 C.ar    1  UNL1       -0.0002
     14 C           3.3895   27.5497   10.5935 C.ar    1  UNL1        0.0008
     15 C           2.0042   27.6992   10.5827 C.ar    1  UNL1        0.0111
     16 C           1.4173   28.8378   10.0164 C.ar    1  UNL1        0.0555
     17 CL         -0.3086   28.9203   10.0402 Cl      1  UNL1       -0.0825
     18 C           1.4165   32.1712    9.9222 C.2     1  UNL1        0.3361
     19 O           2.1524   32.3664   10.8801 O.2     1  UNL1       -0.2482
     20 C           0.1371   34.0715   10.4516 C.3     1  UNL1        0.2557
     21 O           0.2762   32.8864    9.6668 O.3     1  UNL1       -0.4432
@<TRIPOS>BOND
     1    20    21    1
     2    21    18    1
     3    18    19    2
     4     1    11    1
     5     1     2    1
     6     1    18    1
     7    11    12   ar
     8    11    16   ar
     9    12    13   ar
    10    13    14   ar
    11    14    15   ar
    12    15    16   ar
    13    16    17    1
    14     2     3    1
    15     2    10    1
    16     3     4    1
    17     4     5    1
    18     5     6   ar
    19     5     9   ar
    20     6     7   ar
    21     7     8   ar
    22     8     9   ar
    23     9    10    1



#	Name:			CHEMBL181
#	Creating user name:	trannguyen
#	Creation time:		Wed Dec  7 14:36:25 2022


#	Modifying user name:	trannguyen
#	Modification time:	Wed Dec  7 14:36:25 2022

@<TRIPOS>MOLECULE
CHEMBL181
 15 16 0 0 0
SMALL
GASTEIGER

@<TRIPOS>ATOM
      1 C          -0.7023   28.7848    9.9015 C.3     1  UNL1        0.1323
      2 C           0.5771   29.5349    9.5925 C.2     1  UNL1        0.3276
      3 N           0.4509   30.6113    8.8981 N.2     1  UNL1        0.0912
      4 S           1.7442   31.4933    8.5007 S.O2    1  UNL1        0.1830
      5 O           1.9296   31.4181    7.0640 O.2     1  UNL1       -0.1250
      6 O           1.6479   32.7787    9.1651 O.2     1  UNL1       -0.1250
      7 C           3.1655   30.7163    9.1934 C.ar    1  UNL1        0.1886
      8 C           4.4217   31.3004    9.0001 C.ar    1  UNL1        0.0374
      9 C           5.5369   30.6780    9.5445 C.ar    1  UNL1        0.0593
     10 CL          7.0965   31.3662    9.3251 Cl      1  UNL1       -0.0822
     11 C           5.3972   29.4941   10.2684 C.ar    1  UNL1        0.0150
     12 C           4.1292   28.9278   10.4509 C.ar    1  UNL1        0.0425
     13 C           2.9914   29.5386    9.9116 C.ar    1  UNL1        0.1567
     14 N           1.7282   28.9787   10.0898 N.pl3   1  UNL1       -0.1998
     15 H           1.6708   28.1213   10.6277 H       1  UNL1        0.2983
@<TRIPOS>BOND
     1     1     2    1
     2     2     3    2
     3     2    14    1
     4     3     4    1
     5     4     5    2
     6     4     6    2
     7     4     7    1
     8     7     8   ar
     9     7    13   ar
    10     8     9   ar
    11     9    10    1
    12     9    11   ar
    13    11    12   ar
    14    12    13   ar
    15    13    14    1
    16    14    15    1



#	Name:			CHEMBL182
#	Creating user name:	trannguyen
#	Creation time:		Wed Dec  7 14:36:25 2022


#	Modifying user name:	trannguyen
#	Modification time:	Wed Dec  7 14:36:25 2022

@<TRIPOS>MOLECULE
CHEMBL182
 23 24 0 0 0
SMALL
GASTEIGER

@<TRIPOS>ATOM
      1 N          -0.7420   29.4309    9.8713 N.pl3   1  UNL1       -0.3273
      2 C           0.5765   29.1145   10.1061 C.ar    1  UNL1        0.2176
      3 N           0.8116   27.9866   10.8031 N.ar    1  UNL1       -0.1778
      4 C           2.0888   27.6727   11.0784 C.ar    1  UNL1        0.2452
      5 O           2.2586   26.5152   11.7849 O.3     1  UNL1       -0.4908
      6 C           3.1376   28.4897   10.6713 C.ar    1  UNL1        0.1699
      7 N           4.5061   28.4544   10.8147 N.ar    1  UNL1       -0.2175
      8 C           4.9408   29.5326   10.1944 C.ar    1  UNL1        0.1817
      9 N           3.9127   30.2550    9.6533 N.ar    1  UNL1       -0.2678
     10 C           2.7441   29.6182    9.9629 C.ar    1  UNL1        0.1721
     11 N           1.4962   29.9931    9.6639 N.ar    1  UNL1       -0.1947
     12 H          -1.3330   28.9899   10.5635 H       1  UNL1        0.1452
     13 H          -0.8425   30.4304    9.7514 H       1  UNL1        0.1452
     14 H           1.3372   26.2106   11.8593 H       1  UNL1        0.2938
     15 C           4.0436   31.5117    8.9495 C.3     1  UNL1        0.2582
     16 O           3.6851   32.5638    9.8495 O.3     1  UNL1       -0.3294
     17 C           2.6351   33.4199    9.3493 C.3     1  UNL1        0.1757
     18 C           1.3964   33.3664   10.2570 C.3     1  UNL1        0.1693
     19 O           0.3273   32.6595    9.6333 O.3     1  UNL1       -0.3794
     20 H           0.2350   32.9972    8.7240 H       1  UNL1        0.2105
     21 C           3.1808   34.8582    9.3154 C.3     1  UNL1        0.1693
     22 O           2.8875   35.4843    8.0678 O.3     1  UNL1       -0.3794
     23 H           3.4630   35.0622    7.4043 H       1  UNL1        0.2105
@<TRIPOS>BOND
     1     1     2    1
     2     1    12    1
     3     1    13    1
     4     2     3   ar
     5     2    11   ar
     6     3     4   ar
     7     4     5    1
     8     4     6   ar
     9     5    14    1
    10     6     7   ar
    11     6    10   ar
    12     7     8   ar
    13     8     9   ar
    14     9    15    1
    15     9    10   ar
    16    15    16    1
    17    16    17    1
    18    17    18    1
    19    17    21    1
    20    18    19    1
    21    19    20    1
    22    21    22    1
    23    22    23    1
    24    10    11   ar



#	Name:			CHEMBL184
#	Creating user name:	trannguyen
#	Creation time:		Wed Dec  7 14:36:25 2022


#	Modifying user name:	trannguyen
#	Modification time:	Wed Dec  7 14:36:25 2022

@<TRIPOS>MOLECULE
CHEMBL184
 20 21 0 0 0
SMALL
GASTEIGER

@<TRIPOS>ATOM
      1 N          -0.7688   29.3780    9.8668 N.pl3   1  UNL1       -0.3273
      2 C           0.5569   29.0874   10.1210 C.ar    1  UNL1        0.2176
      3 N           0.7927   27.9612   10.8175 N.ar    1  UNL1       -0.1778
      4 C           2.0706   27.6672   11.1180 C.ar    1  UNL1        0.2452
      5 O           2.2476   26.5036   11.8127 O.3     1  UNL1       -0.4908
      6 C           3.1104   28.5064   10.7378 C.ar    1  UNL1        0.1699
      7 N           4.4758   28.4874   10.9078 N.ar    1  UNL1       -0.2175
      8 C           4.9081   29.5725   10.2988 C.ar    1  UNL1        0.1817
      9 N           3.8857   30.2821    9.7314 N.ar    1  UNL1       -0.2678
     10 C           2.7194   29.6277   10.0241 C.ar    1  UNL1        0.1721
     11 N           1.4669   29.9807    9.6912 N.ar    1  UNL1       -0.1947
     12 H          -1.3567   28.9140   10.5462 H       1  UNL1        0.1452
     13 H          -0.8933   30.3745    9.7587 H       1  UNL1        0.1452
     14 H           1.3324   26.1808   11.8688 H       1  UNL1        0.2938
     15 C           3.9796   31.4912    8.9380 C.3     1  UNL1        0.2582
     16 O           3.7729   32.6312    9.7752 O.3     1  UNL1       -0.3294
     17 C           2.7588   33.4908    9.2418 C.3     1  UNL1        0.1760
     18 C           1.5485   33.4405   10.1695 C.3     1  UNL1        0.1693
     19 O           0.4303   32.8870    9.4802 O.3     1  UNL1       -0.3794
     20 H           0.3274   33.4183    8.6680 H       1  UNL1        0.2105
@<TRIPOS>BOND
     1     1     2    1
     2     1    12    1
     3     1    13    1
     4     2     3   ar
     5     2    11   ar
     6     3     4   ar
     7     4     5    1
     8     4     6   ar
     9     5    14    1
    10     6     7   ar
    11     6    10   ar
    12     7     8   ar
    13     8     9   ar
    14     9    15    1
    15     9    10   ar
    16    15    16    1
    17    16    17    1
    18    17    18    1
    19    18    19    1
    20    19    20    1
    21    10    11   ar



#	Name:			CHEMBL184618
#	Creating user name:	trannguyen
#	Creation time:		Wed Dec  7 14:36:25 2022


#	Modifying user name:	trannguyen
#	Modification time:	Wed Dec  7 14:36:25 2022

@<TRIPOS>MOLECULE
CHEMBL184618
 61 64 0 0 0
SMALL
GASTEIGER

@<TRIPOS>ATOM
      1 C           3.8537   33.5535    9.4496 C.3     1  UNL1        0.1741
      2 C           2.4499   33.8488   10.0263 C.3     1  UNL1        0.1541
      3 O           1.8921   35.0298    9.4177 O.3     1  UNL1       -0.3805
      4 C           1.4559   32.6875    9.7966 C.3     1  UNL1        0.0820
      5 N           0.1333   33.0074   10.3554 N.3     1  UNL1       -0.3202
      6 C           1.9949   31.4160   10.4418 C.3     1  UNL1        0.0361
      7 C           3.2460   30.9306    9.6862 C.3     1  UNL1        0.0824
      8 N           3.9712   29.8906   10.4402 N.3     1  UNL1       -0.3202
      9 C           4.1786   32.0646    9.0725 C.3     1  UNL1        0.1614
     10 H           2.6036   35.6940    9.3221 H       1  UNL1        0.2105
     11 H          -0.1778   33.8683    9.8889 H       1  UNL1        0.1189
     12 H           0.2079   33.2626   11.3376 H       1  UNL1        0.1189
     13 H           3.3198   29.2633   10.9046 H       1  UNL1        0.1189
     14 H           4.4779   30.3586   11.2230 H       1  UNL1        0.1189
     15 O           4.9672   34.2781   10.0565 O.3     1  UNL1       -0.3260
     16 C           8.5519   33.5301    9.7486 C.3     1  UNL1        0.1790
     17 C           8.3214   33.8749   11.2357 C.3     1  UNL1        0.1766
     18 O           6.8689   33.8994   11.4608 O.3     1  UNL1       -0.3260
     19 C           6.2431   33.6441   10.1899 C.3     1  UNL1        0.2658
     20 C           7.2879   34.1463    9.2114 C.3     1  UNL1        0.1968
     21 O           7.0275   33.7154    7.8931 O.3     1  UNL1       -0.3775
     22 H           6.5458   32.8979    7.9837 H       1  UNL1        0.2106
     23 C           8.8651   35.2714   11.5756 C.3     1  UNL1        0.1693
     24 O          10.2688   35.3281   11.3442 O.3     1  UNL1       -0.3794
     25 H          10.6599   34.6122   11.8803 H       1  UNL1        0.2105
     26 O           8.6309   32.0916    9.5589 O.3     1  UNL1       -0.3267
     27 C          10.9818   31.6690    6.7738 C.3     1  UNL1        0.1623
     28 O          10.0236   32.3659    7.6143 O.3     1  UNL1       -0.3279
     29 C           9.7580   31.6138    8.7958 C.3     1  UNL1        0.2524
     30 C          11.0254   31.5541    9.6903 C.3     1  UNL1        0.1376
     31 N          11.4747   32.9109   10.0875 N.3     1  UNL1       -0.3162
     32 C          12.1209   30.8064    8.8884 C.3     1  UNL1        0.1587
     33 O          11.7322   29.4343    8.7299 O.3     1  UNL1       -0.3804
     34 C          12.3320   31.4612    7.5088 C.3     1  UNL1        0.1671
     35 O          13.0301   32.6975    7.6655 O.3     1  UNL1       -0.3795
     36 H          11.3638   32.9908   11.1017 H       1  UNL1        0.1190
     37 H          10.7782   33.5756    9.7255 H       1  UNL1        0.1190
     38 H          12.5023   28.9548    8.3582 H       1  UNL1        0.2105
     39 H          12.6332   33.1475    8.4448 H       1  UNL1        0.2105
     40 N          12.3913   32.2813    4.7464 N.3     1  UNL1       -0.3191
     41 C          11.1188   32.4515    5.4510 C.3     1  UNL1        0.0978
     42 H          12.6476   31.2987    4.6842 H       1  UNL1        0.1189
     43 H          13.1292   32.7538    5.2704 H       1  UNL1        0.1189
     44 O           4.0228   31.8499    7.6477 O.3     1  UNL1       -0.3280
     45 C           3.7570   32.9681    6.8031 C.3     1  UNL1        0.2524
     46 O           4.8957   33.4237    6.0910 O.3     1  UNL1       -0.3279
     47 C           5.4209   32.5257    5.1019 C.3     1  UNL1        0.1623
     48 C           4.3457   31.9260    4.1639 C.3     1  UNL1        0.1671
     49 O           4.8521   30.8048    3.4219 O.3     1  UNL1       -0.3795
     50 C           3.1420   31.4246    4.9752 C.3     1  UNL1        0.1587
     51 O           2.1150   30.9440    4.0945 O.3     1  UNL1       -0.3804
     52 C           2.6129   32.5747    5.8402 C.3     1  UNL1        0.1376
     53 N           1.3492   32.2143    6.5279 N.3     1  UNL1       -0.3162
     54 H           5.5067   31.1268    2.7841 H       1  UNL1        0.2105
     55 H           2.5451   30.2282    3.5860 H       1  UNL1        0.2105
     56 H           1.5436   31.4497    7.1762 H       1  UNL1        0.1190
     57 H           0.7431   31.7997    5.8119 H       1  UNL1        0.1190
     58 C           6.4585   33.3656    4.3141 C.3     1  UNL1        0.0978
     59 N           7.0644   34.4196    5.1432 N.3     1  UNL1       -0.3191
     60 H           6.3128   34.8395    5.6996 H       1  UNL1        0.1189
     61 H           7.7017   33.9995    5.8183 H       1  UNL1        0.1189
@<TRIPOS>BOND
     1    40    41    1
     2    40    42    1
     3    40    43    1
     4    27    28    1
     5    27    34    1
     6    27    41    1
     7    28    29    1
     8    29    26    1
     9    29    30    1
    10    16    17    1
    11    16    20    1
    12    16    26    1
    13    17    23    1
    14    17    18    1
    15    23    24    1
    16    24    25    1
    17    18    19    1
    18    19    20    1
    19    19    15    1
    20     1     2    1
    21     1     9    1
    22     1    15    1
    23     2     3    1
    24     2     4    1
    25     3    10    1
    26     4     5    1
    27     4     6    1
    28     5    11    1
    29     5    12    1
    30     6     7    1
    31     7     8    1
    32     7     9    1
    33     8    13    1
    34     8    14    1
    35     9    44    1
    36    44    45    1
    37    45    46    1
    38    45    52    1
    39    46    47    1
    40    47    58    1
    41    47    48    1
    42    58    59    1
    43    59    60    1
    44    59    61    1
    45    48    50    1
    46    48    49    1
    47    49    54    1
    48    50    51    1
    49    50    52    1
    50    51    55    1
    51    52    53    1
    52    53    56    1
    53    53    57    1
    54    20    21    1
    55    21    22    1
    56    30    31    1
    57    30    32    1
    58    31    36    1
    59    31    37    1
    60    32    34    1
    61    32    33    1
    62    33    38    1
    63    34    35    1
    64    35    39    1



#	Name:			CHEMBL189
#	Creating user name:	trannguyen
#	Creation time:		Wed Dec  7 14:36:25 2022


#	Modifying user name:	trannguyen
#	Modification time:	Wed Dec  7 14:36:25 2022

@<TRIPOS>MOLECULE
CHEMBL189
 17 18 0 0 0
SMALL
GASTEIGER

@<TRIPOS>ATOM
      1 C           2.1751   33.0612   10.0268 C.3     1  UNL1        0.0499
      2 C           2.3571   32.5160    8.6344 C.ar    1  UNL1        0.0364
      3 N           2.8296   33.4339    7.7156 N.ar    1  UNL1       -0.3240
      4 H           3.0135   34.3886    8.0045 H       1  UNL1        0.1687
      5 C           3.0928   33.1703    6.3923 C.ar    1  UNL1        0.2670
      6 O           3.5127   34.0451    5.6428 O.2     1  UNL1       -0.2665
      7 C           2.8415   31.7765    5.9435 C.ar    1  UNL1        0.1242
      8 C           2.3742   30.8915    6.8406 C.ar    1  UNL1        0.0162
      9 C           2.1137   31.2461    8.2331 C.ar    1  UNL1        0.0125
     10 C           1.6017   30.2324    9.1749 C.ar    1  UNL1        0.0042
     11 C           2.4830   29.5252    9.9943 C.ar    1  UNL1        0.0207
     12 C           1.9587   28.5719   10.8504 C.ar    1  UNL1        0.0989
     13 N           0.6425   28.2849   10.9370 N.ar    1  UNL1       -0.2423
     14 C          -0.1887   28.9766   10.1289 C.ar    1  UNL1        0.0989
     15 C           0.2366   29.9469    9.2376 C.ar    1  UNL1        0.0207
     16 C           3.1131   31.4080    4.6142 C.1     1  UNL1        0.1052
     17 N           3.3355   31.1062    3.5259 N.1     1  UNL1       -0.1907
@<TRIPOS>BOND
     1     1     2    1
     2     2     3   ar
     3     2     9   ar
     4     3     4    1
     5     3     5   ar
     6     5     6    2
     7     5     7   ar
     8     7    16    1
     9     7     8   ar
    10    16    17    3
    11     8     9   ar
    12     9    10    1
    13    10    11   ar
    14    10    15   ar
    15    11    12   ar
    16    12    13   ar
    17    13    14   ar
    18    14    15   ar



#	Name:			CHEMBL189171
#	Creating user name:	trannguyen
#	Creation time:		Wed Dec  7 14:36:25 2022


#	Modifying user name:	trannguyen
#	Modification time:	Wed Dec  7 14:36:25 2022

@<TRIPOS>MOLECULE
CHEMBL189171
 30 32 0 0 0
SMALL
GASTEIGER

@<TRIPOS>ATOM
      1 C           4.0406   31.8608    5.0872 C.ar    1  UNL1        0.1388
      2 C           5.3037   32.3595    5.3820 C.ar    1  UNL1        0.0384
      3 C           5.6321   32.7901    6.6771 C.ar    1  UNL1        0.0207
      4 C           4.6503   32.7385    7.6846 C.ar    1  UNL1        0.0664
      5 C           3.3605   32.2874    7.3870 C.ar    1  UNL1        0.0169
      6 C           3.0752   31.8010    6.0933 C.ar    1  UNL1        0.0381
      7 C           2.5445   32.5195    8.5248 C.ar    1  UNL1        0.0025
      8 C           3.3287   33.1949    9.4495 C.ar    1  UNL1        0.0411
      9 C           2.8442   33.8561   10.7000 C.3     1  UNL1        0.0501
     10 N           4.6714   33.1298    9.0322 N.ar    1  UNL1       -0.2785
     11 C           5.8213   33.4675    9.8109 C.2     1  UNL1        0.2644
     12 O           5.6364   34.1765   10.8012 O.2     1  UNL1       -0.2666
     13 C           7.2372   33.0259    9.5856 C.ar    1  UNL1        0.0565
     14 C           8.2757   33.9183    9.2849 C.ar    1  UNL1        0.0056
     15 C           9.5681   33.4369    9.0117 C.ar    1  UNL1        0.0115
     16 C           9.8255   32.0661    9.0210 C.ar    1  UNL1        0.0577
     17 CL         11.4106   31.4830    8.6898 Cl      1  UNL1       -0.0822
     18 C           8.7978   31.1665    9.2845 C.ar    1  UNL1        0.0115
     19 C           7.5083   31.6448    9.5534 C.ar    1  UNL1        0.0056
     20 C           2.2966   31.8397    3.4719 C.3     1  UNL1        0.2525
     21 O           3.6027   31.4376    3.8621 O.3     1  UNL1       -0.4714
     22 C           1.0815   32.2156    8.6426 C.3     1  UNL1        0.1370
     23 C           0.8091   30.7946    9.0718 C.2     1  UNL1        0.3220
     24 O           0.2421   29.9358    8.3957 O.2     1  UNL1       -0.2497
     25 O           1.4570   30.5066   10.2312 O.3     1  UNL1       -0.4359
     26 C           2.0762   29.2162   10.2868 C.3     1  UNL1        0.3165
     27 C           1.3409   28.2924   11.2472 C.2     1  UNL1        0.3590
     28 O           1.8783   27.7099   12.1772 O.2     1  UNL1       -0.2461
     29 O           0.0139   28.1700   10.9858 O.3     1  UNL1       -0.4776
     30 H          -0.3105   28.7606   10.2805 H       1  UNL1        0.2952
@<TRIPOS>BOND
     1    20    21    1
     2    21     1    1
     3     1     2   ar
     4     1     6   ar
     5     2     3   ar
     6     3     4   ar
     7     4     5   ar
     8     4    10   ar
     9     5     6   ar
    10     5     7   ar
    11     7    22    1
    12     7     8   ar
    13    22    23    1
    14    23    24    2
    15    23    25    1
    16    25    26    1
    17    26    27    1
    18    27    28    2
    19    27    29    1
    20    29    30    1
    21     8     9    1
    22     8    10   ar
    23    10    11   am
    24    11    12    2
    25    11    13    1
    26    13    14   ar
    27    13    19   ar
    28    14    15   ar
    29    15    16   ar
    30    16    17    1
    31    16    18   ar
    32    18    19   ar



#	Name:			CHEMBL1902981
#	Creating user name:	trannguyen
#	Creation time:		Wed Dec  7 14:36:25 2022


#	Modifying user name:	trannguyen
#	Modification time:	Wed Dec  7 14:36:25 2022

@<TRIPOS>MOLECULE
CHEMBL1902981
 19 20 0 0 0
SMALL
GASTEIGER

@<TRIPOS>ATOM
      1 C           5.8731   31.2877    9.1154 C.2     1  UNL1        0.1740
      2 O           6.9588   30.8272    9.4123 O.2     1  UNL1       -0.2913
      3 C           2.3861   29.1185   10.5032 C.ar    1  UNL1       -0.0222
      4 C           2.2459   30.4061    9.9945 C.ar    1  UNL1       -0.0042
      5 C           3.3299   31.0290    9.3852 C.ar    1  UNL1        0.0025
      6 C           4.6242   30.5204    9.4834 C.ar    1  UNL1        0.0347
      7 C           4.7672   29.2099    9.9578 C.ar    1  UNL1        0.0025
      8 C           3.6469   28.5095   10.4344 C.ar    1  UNL1       -0.0042
      9 C          -0.1120   28.7856   10.1852 C.3     1  UNL1        0.0050
     10 C           1.1363   28.4071   10.9581 C.3     1  UNL1        0.0264
     11 C           5.7225   32.6662    8.3641 C.3     1  UNL1        0.0779
     12 C           6.6162   33.8091    8.8178 C.3     1  UNL1        0.0096
     13 C           5.9215   32.4514    6.8222 C.3     1  UNL1        0.0798
     14 N           4.9859   33.2353    5.9709 N.3     1  UNL1       -0.2723
     15 C           5.2242   33.0535    4.5301 C.3     1  UNL1        0.0721
     16 C           4.8360   31.6607    4.0336 C.3     1  UNL1        0.0174
     17 C           3.3713   31.3645    4.3396 C.3     1  UNL1        0.0029
     18 C           3.0101   31.6825    5.7885 C.3     1  UNL1        0.0174
     19 C           3.5603   33.0272    6.2595 C.3     1  UNL1        0.0721
@<TRIPOS>BOND
     1     9    10    1
     2    10     3    1
     3     3     4   ar
     4     3     8   ar
     5     4     5   ar
     6     5     6   ar
     7     6     1    1
     8     6     7   ar
     9     1     2    2
    10     1    11    1
    11    11    12    1
    12    11    13    1
    13    13    14    1
    14    14    15    1
    15    14    19    1
    16    15    16    1
    17    16    17    1
    18    17    18    1
    19    18    19    1
    20     7     8   ar



#	Name:			CHEMBL1909049
#	Creating user name:	trannguyen
#	Creation time:		Wed Dec  7 14:36:25 2022


#	Modifying user name:	trannguyen
#	Modification time:	Wed Dec  7 14:36:25 2022

@<TRIPOS>MOLECULE
CHEMBL1909049
 23 25 0 0 0
SMALL
GASTEIGER

@<TRIPOS>ATOM
      1 C           2.8376   31.7087    9.0496 C.2     1  UNL1        0.2520
      2 O           3.2015   32.6173    9.8377 O.2     1  UNL1       -0.2698
      3 N           2.6790   32.0545    7.6838 N.am    1  UNL1       -0.2760
      4 C           2.2739   31.0863    6.6824 C.3     1  UNL1        0.0937
      5 C           2.1074   31.6029    5.2753 C.3     1  UNL1        0.0219
      6 C           3.2708   32.4793    4.8147 C.3     1  UNL1        0.0078
      7 C           3.2253   33.6846    5.7694 C.3     1  UNL1        0.0219
      8 C           3.3791   33.2766    7.2387 C.3     1  UNL1        0.0937
      9 C           3.7882   29.3259    9.8946 C.ar    1  UNL1        0.1430
     10 C           3.4323   28.1136   10.5295 C.ar    1  UNL1        0.0371
     11 C           2.1112   27.7696   10.7828 C.ar    1  UNL1        0.0031
     12 C           1.1087   28.6632   10.4602 C.ar    1  UNL1        0.0003
     13 C           1.4461   29.9022    9.9143 C.ar    1  UNL1        0.0076
     14 C           2.7808   30.2936    9.6249 C.ar    1  UNL1        0.0875
     15 C           5.9572   30.2205   10.5085 C.3     1  UNL1        0.2525
     16 O           5.0946   29.5516    9.5870 O.3     1  UNL1       -0.4713
     17 C           4.6892   31.8415    4.8002 C.3     1  UNL1        0.0265
     18 C           5.6520   32.1741    3.6768 C.ar    1  UNL1       -0.0222
     19 C           6.5558   31.1918    3.2313 C.ar    1  UNL1       -0.0043
     20 C           7.4547   31.4592    2.1905 C.ar    1  UNL1       -0.0003
     21 C           7.4418   32.6978    1.5552 C.ar    1  UNL1       -0.0000
     22 C           6.5446   33.6705    1.9714 C.ar    1  UNL1       -0.0003
     23 C           5.6904   33.4188    3.0436 C.ar    1  UNL1       -0.0043
@<TRIPOS>BOND
     1    15    16    1
     2    16     9    1
     3     9    10   ar
     4     9    14   ar
     5    10    11   ar
     6    11    12   ar
     7    12    13   ar
     8    13    14   ar
     9    14     1    1
    10     1     2    2
    11     1     3   am
    12     3     4    1
    13     3     8    1
    14     4     5    1
    15     5     6    1
    16     6    17    1
    17     6     7    1
    18    17    18    1
    19    18    19   ar
    20    18    23   ar
    21    19    20   ar
    22    20    21   ar
    23    21    22   ar
    24    22    23   ar
    25     7     8    1



#	Name:			CHEMBL1909070
#	Creating user name:	trannguyen
#	Creation time:		Wed Dec  7 14:36:25 2022


#	Modifying user name:	trannguyen
#	Modification time:	Wed Dec  7 14:36:25 2022

@<TRIPOS>MOLECULE
CHEMBL1909070
 24 26 0 0 0
SMALL
GASTEIGER

@<TRIPOS>ATOM
      1 C           4.2515   30.4101   10.2339 C.ar    1  UNL1        0.1390
      2 C           3.9892   31.3538    9.2342 C.ar    1  UNL1        0.0366
      3 C           5.0295   31.9507    8.5084 C.ar    1  UNL1       -0.0008
      4 C           6.3629   31.6157    8.7731 C.ar    1  UNL1       -0.0182
      5 C           6.6095   30.7151    9.8235 C.ar    1  UNL1       -0.0008
      6 C           5.5715   30.1501   10.5680 C.ar    1  UNL1        0.0366
      7 C           7.4986   32.2192    7.9392 C.3     1  UNL1        0.0443
      8 C           7.9975   31.2382    6.8580 C.3     1  UNL1        0.0091
      9 C           8.8936   30.1543    7.4498 C.3     1  UNL1        0.0053
     10 C          10.1309   30.7659    8.1029 C.3     1  UNL1        0.0261
     11 C           9.8522   32.0012    8.9243 C.ar    1  UNL1       -0.0258
     12 C          10.8382   32.4565    9.8129 C.ar    1  UNL1       -0.0046
     13 C          10.6385   33.6114   10.5688 C.ar    1  UNL1       -0.0003
     14 C           9.4617   34.3404   10.4288 C.ar    1  UNL1       -0.0003
     15 C           8.4760   33.9059    9.5449 C.ar    1  UNL1       -0.0043
     16 C           8.6532   32.7309    8.7936 C.ar    1  UNL1       -0.0224
     17 O           3.1493   29.8380   10.7913 O.3     1  UNL1       -0.4720
     18 C           1.7780   28.9439    9.0464 C.3     1  UNL1        0.0553
     19 C           2.5892   28.6114   10.3102 C.3     1  UNL1        0.2210
     20 C           3.8138   27.7832    9.8670 C.3     1  UNL1        0.0553
     21 C           1.7545   27.6466   11.2062 C.2     1  UNL1        0.3503
     22 O           2.2198   26.7202   11.8571 O.2     1  UNL1       -0.2464
     23 O           0.4253   27.9164   11.2201 O.3     1  UNL1       -0.4778
     24 H           0.1686   28.5988   10.5642 H       1  UNL1        0.2952
@<TRIPOS>BOND
     1    18    19    1
     2    19    20    1
     3    19    17    1
     4    19    21    1
     5    17     1    1
     6     1     2   ar
     7     1     6   ar
     8     2     3   ar
     9     3     4   ar
    10     4     7    1
    11     4     5   ar
    12     7     8    1
    13     7    16    1
    14     8     9    1
    15     9    10    1
    16    10    11    1
    17    11    12   ar
    18    11    16   ar
    19    12    13   ar
    20    13    14   ar
    21    14    15   ar
    22    15    16   ar
    23     5     6   ar
    24    21    22    2
    25    21    23    1
    26    23    24    1



#	Name:			CHEMBL1909076
#	Creating user name:	trannguyen
#	Creation time:		Wed Dec  7 14:36:25 2022


#	Modifying user name:	trannguyen
#	Modification time:	Wed Dec  7 14:36:25 2022

@<TRIPOS>MOLECULE
CHEMBL1909076
 21 21 0 0 0
SMALL
GASTEIGER

@<TRIPOS>ATOM
      1 C1          4.8680   31.1576    9.1949 C.2     1  <1>         0.1080
      2 S1          6.2092   30.8255   10.1247 S.2     1  <1>        -0.0281
      3 N1          4.8419   31.8024    7.9882 N.am    1  <1>        -0.3189
      4 H1          5.1902   31.2767    7.1963 H       1  <1>         0.1480
      5 C2          4.0767   33.0016    7.6834 C.3     1  <1>         0.1150
      6 C3          3.3700   32.8347    6.3606 C.ar    1  <1>        -0.0026
      7 C4          3.0763   33.9575    5.5723 C.ar    1  <1>        -0.0026
      8 C5          2.4079   33.8152    4.3554 C.ar    1  <1>        -0.0003
      9 C6          2.0173   32.5517    3.9179 C.ar    1  <1>        -0.0000
     10 C7          2.2894   31.4301    4.6993 C.ar    1  <1>        -0.0003
     11 C8          2.9587   31.5695    5.9175 C.ar    1  <1>        -0.0026
     12 S2          3.2390   30.6952    9.6648 S.3     1  <1>        -0.0905
     13 C9          3.5823   28.9674   10.1866 C.3     1  <1>         0.0907
     14 N2          2.7209   26.6065    9.7890 N.3     1  <1>        -0.3127
     15 C10         2.3594   28.0443   10.0307 C.3     1  <1>         0.1622
     16 H2          3.5880   26.3956   10.2952 H       1  <1>         0.1193
     17 H3          3.0112   26.5413    8.8049 H       1  <1>         0.1193
     18 C11         1.5205   28.1158   11.3124 C.2     1  <1>         0.3288
     19 O1          1.9743   28.0636   12.4583 O.2     1  <1>        -0.2488
     20 O2          0.1965   28.2361   11.0487 O.3     1  <1>        -0.4792
     21 H4          0.1258   28.3447   10.0654 H       1  <1>         0.2951
@<TRIPOS>BOND
     1    14    16    1
     2    14    17    1
     3    15    13    1
     4    15    18    1
     5    15    14    1
     6    13    12    1
     7    12     1    1
     8     1     2    2
     9     1     3    1
    10     3     5    1
    11     3     4    1
    12     5     6    1
    13     6     7   ar
    14     6    11   ar
    15     7     8   ar
    16     8     9   ar
    17     9    10   ar
    18    10    11   ar
    19    18    19    2
    20    18    20    1
    21    20    21    1



#	Name:			CHEMBL191
#	Creating user name:	trannguyen
#	Creation time:		Wed Dec  7 14:36:25 2022


#	Modifying user name:	trannguyen
#	Modification time:	Wed Dec  7 14:36:25 2022

@<TRIPOS>MOLECULE
CHEMBL191
 32 35 0 0 0
SMALL
GASTEIGER

@<TRIPOS>ATOM
      1 C           5.9909   30.5934    9.7365 C.ar    1  UNL1        0.0004
      2 C           6.6128   30.9512    8.5833 C.ar    1  UNL1       -0.0024
      3 C           7.5766   32.0056    8.5195 C.ar    1  UNL1       -0.0003
      4 C           8.0345   32.7440    9.6384 C.ar    1  UNL1        0.0001
      5 C           7.5382   32.3110   10.7833 C.ar    1  UNL1       -0.0003
      6 C           6.6589   31.2221   10.7944 C.ar    1  UNL1       -0.0024
      7 C           9.1090   33.7617    9.6448 C.ar    1  UNL1        0.0030
      8 C           8.6918   35.1308    9.6921 C.ar    1  UNL1        0.0001
      9 C           9.5938   36.1864    9.7258 C.ar    1  UNL1        0.0000
     10 C          10.9389   35.9156    9.6907 C.ar    1  UNL1        0.0001
     11 C          11.3863   34.5925    9.6382 C.ar    1  UNL1        0.0031
     12 C          10.4911   33.4969    9.6171 C.ar    1  UNL1        0.0371
     13 C          11.0649   32.1463    9.6086 C.ar    1  UNL1        0.1806
     14 N          10.8887   31.1564    8.7524 N.ar    1  UNL1       -0.1084
     15 N          11.6209   30.0903    9.2216 N.ar    1  UNL1       -0.0229
     16 N          12.2471   30.4048   10.3445 N.ar    1  UNL1       -0.0464
     17 N          11.8936   31.6705   10.5893 N.ar    1  UNL1       -0.2388
     18 H          12.2272   32.1317   11.4250 H       1  UNL1        0.1923
     19 C           4.9188   29.4744    9.8586 C.3     1  UNL1        0.1337
     20 C           2.7000   30.8173    9.3567 C.ar    1  UNL1        0.1214
     21 N           1.4010   30.6581    9.5273 N.ar    1  UNL1       -0.2198
     22 C           1.2040   29.3733    9.9309 C.ar    1  UNL1        0.1536
     23 CL         -0.3809   28.7832   10.1867 Cl      1  UNL1       -0.0600
     24 C           2.4071   28.6908   10.0351 C.ar    1  UNL1        0.0967
     25 N           3.4091   29.6589    9.7748 N.ar    1  UNL1       -0.3113
     26 C           2.6473   27.2456   10.2990 C.3     1  UNL1        0.1834
     27 O           2.2287   26.9226   11.6238 O.3     1  UNL1       -0.3760
     28 H           2.9470   27.1703   12.2335 H       1  UNL1        0.2110
     29 C           3.2191   32.0234    8.6069 C.3     1  UNL1        0.0640
     30 C           3.3397   31.8490    7.0558 C.3     1  UNL1        0.0079
     31 C           1.8907   32.0256    4.9749 C.3     1  UNL1        0.0000
     32 C           2.1000   31.3613    6.3662 C.3     1  UNL1        0.0005
@<TRIPOS>BOND
     1    31    32    1
     2    32    30    1
     3    30    29    1
     4    29    20    1
     5    20    21   ar
     6    20    25   ar
     7    21    22   ar
     8    22    23    1
     9    22    24   ar
    10    24    26    1
    11    24    25   ar
    12    26    27    1
    13    27    28    1
    14    25    19    1
    15    19     1    1
    16     1     2   ar
    17     1     6   ar
    18     2     3   ar
    19     3     4   ar
    20     4     7    1
    21     4     5   ar
    22     7     8   ar
    23     7    12   ar
    24     8     9   ar
    25     9    10   ar
    26    10    11   ar
    27    11    12   ar
    28    12    13    1
    29    13    14   ar
    30    13    17   ar
    31    14    15   ar
    32    15    16   ar
    33    16    17   ar
    34    17    18    1
    35     5     6   ar



#	Name:			CHEMBL19215
#	Creating user name:	trannguyen
#	Creation time:		Wed Dec  7 14:36:25 2022


#	Modifying user name:	trannguyen
#	Modification time:	Wed Dec  7 14:36:25 2022

@<TRIPOS>MOLECULE
CHEMBL19215
 31 35 0 0 0
SMALL
GASTEIGER

@<TRIPOS>ATOM
      1 C           8.7788   35.8052    8.9828 C.3     1  UNL1        0.0896
      2 N           8.6686   35.5286   10.4078 N.3     1  UNL1       -0.2721
      3 C           7.3040   35.6175   10.9286 C.3     1  UNL1        0.0738
      4 C           6.4264   34.3609   10.7880 C.3     1  UNL1        0.0361
      5 C           7.1603   33.1319   11.3375 C.3     1  UNL1        0.0088
      6 C           8.5921   32.9592   10.8128 C.3     1  UNL1        0.0374
      7 C           8.7549   32.2771    9.4672 C.ar    1  UNL1       -0.0200
      8 C           7.9163   31.3046    8.9059 C.ar    1  UNL1       -0.0041
      9 C           8.2204   30.7138    7.6705 C.ar    1  UNL1        0.0012
     10 C           9.3937   31.0291    6.9676 C.ar    1  UNL1        0.0172
     11 C          10.2586   31.9537    7.5618 C.ar    1  UNL1        0.0594
     12 C           9.9390   32.5524    8.7678 C.ar    1  UNL1        0.0094
     13 C          10.9744   33.4380    9.1364 C.ar    1  UNL1       -0.0025
     14 C          11.9321   33.3661    8.1521 C.ar    1  UNL1        0.0716
     15 N          11.4946   32.4583    7.2103 N.ar    1  UNL1       -0.3243
     16 C          12.2477   32.0690    6.0403 C.3     1  UNL1        0.1305
     17 C          10.8767   34.2168   10.4048 C.3     1  UNL1        0.0442
     18 C           9.3913   34.3306   10.9108 C.3     1  UNL1        0.0659
     19 C           5.8734   34.1905    9.3655 C.3     1  UNL1        0.0940
     20 N           5.0226   33.0424    9.1464 N.am    1  UNL1       -0.2706
     21 C           4.4693   32.6728    7.9670 C.2     1  UNL1        0.4020
     22 O           4.4743   33.3331    6.9309 O.2     1  UNL1       -0.2264
     23 H           4.8488   32.4099    9.9173 H       1  UNL1        0.1527
     24 O           3.8550   31.4828    8.1431 O.3     1  UNL1       -0.4297
     25 C           4.2326   30.7647    9.3190 C.3     1  UNL1        0.2367
     26 C           3.0537   29.9232    9.7419 C.ar    1  UNL1        0.0213
     27 C           3.2072   28.7976   10.5639 C.ar    1  UNL1       -0.0007
     28 C           2.0918   28.0420   10.9372 C.ar    1  UNL1       -0.0002
     29 C           0.8193   28.4075   10.4990 C.ar    1  UNL1       -0.0000
     30 C           0.6559   29.5393    9.7044 C.ar    1  UNL1       -0.0002
     31 C           1.7649   30.2995    9.3395 C.ar    1  UNL1       -0.0007
@<TRIPOS>BOND
     1     1     2    1
     2     2     3    1
     3     2    18    1
     4     3     4    1
     5     4     5    1
     6     4    19    1
     7    19    20    1
     8    20    21   am
     9    20    23    1
    10    21    22    2
    11    21    24    1
    12    24    25    1
    13    25    26    1
    14    26    27   ar
    15    26    31   ar
    16    27    28   ar
    17    28    29   ar
    18    29    30   ar
    19    30    31   ar
    20     5     6    1
    21     6     7    1
    22     6    18    1
    23     7     8   ar
    24     7    12   ar
    25     8     9   ar
    26     9    10   ar
    27    10    11   ar
    28    11    12   ar
    29    11    15   ar
    30    12    13   ar
    31    13    14   ar
    32    13    17    1
    33    14    15   ar
    34    15    16    1
    35    17    18    1



#	Name:			CHEMBL19224
#	Creating user name:	trannguyen
#	Creation time:		Wed Dec  7 14:36:25 2022


#	Modifying user name:	trannguyen
#	Modification time:	Wed Dec  7 14:36:25 2022

@<TRIPOS>MOLECULE
CHEMBL19224
 25 27 0 0 0
SMALL
GASTEIGER

@<TRIPOS>ATOM
      1 C           2.5055   33.0558    9.3539 C.ar    1  UNL1        0.0635
      2 N           1.6350   32.3349   10.1045 N.ar    1  UNL1       -0.2478
      3 C           1.0912   31.2278    9.5411 C.ar    1  UNL1        0.0985
      4 C           1.3345   30.8490    8.2407 C.ar    1  UNL1        0.0208
      5 C           2.2098   31.5670    7.4483 C.ar    1  UNL1        0.0059
      6 C           2.4656   31.2578    6.1015 C.ar    1  UNL1        0.0401
      7 C           3.3185   31.9883    5.2502 C.ar    1  UNL1        0.1724
      8 C           4.0976   32.9830    5.8413 C.ar    1  UNL1        0.1724
      9 C           3.9380   33.1739    7.2335 C.ar    1  UNL1        0.0412
     10 C           2.9089   32.6616    8.0410 C.ar    1  UNL1        0.0171
     11 O           3.3717   31.4614    3.9896 O.3     1  UNL1       -0.4684
     12 C           2.3279   31.7603    3.0872 C.3     1  UNL1        0.2526
     13 O           5.1279   33.7357    5.3513 O.3     1  UNL1       -0.4684
     14 C           6.4742   33.2915    5.4199 C.3     1  UNL1        0.2526
     15 C           2.9945   34.3386   10.0433 C.3     1  UNL1        0.0721
     16 C           0.9228   38.1491    9.4280 C.ar    1  UNL1        0.1724
     17 C           0.3566   37.1560   10.2514 C.ar    1  UNL1        0.0397
     18 C           0.9923   35.9109   10.4772 C.ar    1  UNL1       -0.0006
     19 C           2.1875   35.6171    9.8338 C.ar    1  UNL1       -0.0130
     20 C           2.6887   36.6361    9.0275 C.ar    1  UNL1        0.0362
     21 C           2.1525   37.9032    8.8624 C.ar    1  UNL1        0.1721
     22 C           0.0972   40.0910   10.5006 C.3     1  UNL1        0.2526
     23 O           0.2256   39.3218    9.3006 O.3     1  UNL1       -0.4684
     24 O           2.8164   38.8764    8.1669 O.3     1  UNL1       -0.4684
     25 C           2.7642   38.7953    6.7529 C.3     1  UNL1        0.2526
@<TRIPOS>BOND
     1    22    23    1
     2    23    16    1
     3    16    17   ar
     4    16    21   ar
     5    17    18   ar
     6    18    19   ar
     7    19    15    1
     8    19    20   ar
     9    15     1    1
    10     1     2   ar
    11     1    10   ar
    12     2     3   ar
    13     3     4   ar
    14     4     5   ar
    15     5     6   ar
    16     5    10   ar
    17     6     7   ar
    18     7    11    1
    19     7     8   ar
    20    11    12    1
    21     8    13    1
    22     8     9   ar
    23    13    14    1
    24     9    10   ar
    25    20    21   ar
    26    21    24    1
    27    24    25    1



#	Name:			CHEMBL195437
#	Creating user name:	trannguyen
#	Creation time:		Wed Dec  7 14:36:25 2022


#	Modifying user name:	trannguyen
#	Modification time:	Wed Dec  7 14:36:25 2022

@<TRIPOS>MOLECULE
CHEMBL195437
 16 16 0 0 0
SMALL
GASTEIGER

@<TRIPOS>ATOM
      1 C           4.2166   31.2777    9.0506 C.3     1  UNL1        0.0264
      2 C           3.6536   30.0206    9.6954 C.ar    1  UNL1       -0.0220
      3 C           2.3524   29.9684   10.2187 C.ar    1  UNL1       -0.0012
      4 C           1.8407   28.7904   10.7630 C.ar    1  UNL1        0.0363
      5 C           2.6270   27.6501   10.7892 C.ar    1  UNL1        0.1337
      6 O           2.1486   26.4786   11.2903 O.3     1  UNL1       -0.5055
      7 C           3.9309   27.6784   10.2999 C.ar    1  UNL1        0.0363
      8 C           4.4404   28.8568    9.7519 C.ar    1  UNL1       -0.0012
      9 H           1.2184   26.6092   11.5357 H       1  UNL1        0.2922
     10 C           3.1861   32.3739    8.7559 C.3     1  UNL1        0.0047
     11 C           2.8171   32.5420    7.2816 C.3     1  UNL1        0.0003
     12 C           2.1736   31.3041    6.6569 C.3     1  UNL1        0.0000
     13 C           2.2068   31.3126    5.1251 C.3     1  UNL1        0.0000
     14 C           1.8878   32.6709    4.4874 C.3     1  UNL1        0.0000
     15 C           4.1311   33.7874    4.0499 C.3     1  UNL1        0.0000
     16 C           2.9556   33.0318    3.4508 C.3     1  UNL1        0.0000
@<TRIPOS>BOND
     1    15    16    1
     2    16    14    1
     3    14    13    1
     4    13    12    1
     5    12    11    1
     6    11    10    1
     7    10     1    1
     8     1     2    1
     9     2     3   ar
    10     2     8   ar
    11     3     4   ar
    12     4     5   ar
    13     5     6    1
    14     5     7   ar
    15     6     9    1
    16     7     8   ar



#	Name:			CHEMBL2
#	Creating user name:	trannguyen
#	Creation time:		Wed Dec  7 14:36:25 2022


#	Modifying user name:	trannguyen
#	Modification time:	Wed Dec  7 14:36:25 2022

@<TRIPOS>MOLECULE
CHEMBL2
 30 33 0 0 0
SMALL
GASTEIGER

@<TRIPOS>ATOM
      1 C           6.7327   33.1563   -6.9502 C.ar    1  UNL1        0.1739
      2 C           7.2222   32.9647   -5.6548 C.ar    1  UNL1        0.0593
      3 C           7.6646   34.0284   -4.8790 C.ar    1  UNL1        0.0901
      4 N           8.1191   33.7804   -3.6521 N.ar    1  UNL1       -0.2134
      5 C           8.5555   34.7985   -2.8958 C.ar    1  UNL1        0.2214
      6 N           8.5526   36.0677   -3.3228 N.ar    1  UNL1       -0.1991
      7 C           8.1072   36.3108   -4.5604 C.ar    1  UNL1        0.1298
      8 N           8.1317   37.6580   -4.9483 N.pl3   1  UNL1       -0.3425
      9 C           7.6264   35.3131   -5.4082 C.ar    1  UNL1        0.0522
     10 C           7.1292   35.5243   -6.7126 C.ar    1  UNL1        0.0443
     11 C           6.6874   34.4513   -7.4859 C.ar    1  UNL1        0.1726
     12 H           8.5548   38.1753   -4.1808 H       1  UNL1        0.1437
     13 H           8.6637   37.7799   -5.8034 H       1  UNL1        0.1437
     14 N           9.0595   34.5080   -1.6296 N.pl3   1  UNL1       -0.2747
     15 C           9.1638   35.6596   -0.7085 C.3     1  UNL1        0.1151
     16 C           7.8157   35.9225    0.0023 C.3     1  UNL1        0.1153
     17 N           7.2939   34.6974    0.6267 N.am    1  UNL1       -0.2701
     18 C           7.4703   34.5160    2.0009 C.2     1  UNL1        0.2839
     19 O           8.0910   35.3593    2.6680 O.2     1  UNL1       -0.2666
     20 C           7.1490   33.5837   -0.3293 C.3     1  UNL1        0.1153
     21 C           8.5034   33.2876   -1.0126 C.3     1  UNL1        0.1151
     22 C           6.9169   33.3343    2.6400 C.ar    1  UNL1        0.1987
     23 C           7.5378   32.1790    3.0853 C.ar    1  UNL1        0.0455
     24 C           6.5460   31.3903    3.7157 C.ar    1  UNL1        0.0440
     25 C           5.3798   32.1116    3.6340 C.ar    1  UNL1        0.1798
     26 O           5.5912   33.2890    2.9920 O.2     1  UNL1       -0.4458
     27 C           7.3258   31.3195   -8.3482 C.3     1  UNL1        0.2526
     28 O           6.3165   32.1334   -7.7611 O.3     1  UNL1       -0.4683
     29 O           6.2451   34.5860   -8.7765 O.3     1  UNL1       -0.4684
     30 C           6.4288   35.8708   -9.3609 C.3     1  UNL1        0.2526
@<TRIPOS>BOND
     1    27    28    1
     2    28     1    1
     3     1     2   ar
     4     1    11   ar
     5     2     3   ar
     6     3     4   ar
     7     3     9   ar
     8     4     5   ar
     9     5    14    1
    10     5     6   ar
    11    14    15    1
    12    14    21    1
    13    15    16    1
    14    16    17    1
    15    17    18   am
    16    17    20    1
    17    18    19    2
    18    18    22    1
    19    22    23   ar
    20    22    26   ar
    21    23    24   ar
    22    24    25   ar
    23    25    26   ar
    24    20    21    1
    25     6     7   ar
    26     7     8    1
    27     7     9   ar
    28     8    12    1
    29     8    13    1
    30     9    10   ar
    31    10    11   ar
    32    11    29    1
    33    29    30    1



#	Name:			CHEMBL203266
#	Creating user name:	trannguyen
#	Creation time:		Wed Dec  7 14:36:25 2022


#	Modifying user name:	trannguyen
#	Modification time:	Wed Dec  7 14:36:25 2022

@<TRIPOS>MOLECULE
CHEMBL203266
 20 21 0 0 0
SMALL
GASTEIGER

@<TRIPOS>ATOM
      1 C           1.9172   29.6863   10.2412 C.ar    1  UNL1        0.1754
      2 C           0.8799   29.9342    9.2882 C.ar    1  UNL1        0.0400
      3 C           1.0567   30.7451    8.2107 C.ar    1  UNL1        0.0034
      4 C           2.2838   31.3960    7.9888 C.ar    1  UNL1        0.0311
      5 C           3.3364   31.2140    8.9644 C.ar    1  UNL1        0.1727
      6 C           3.2019   30.2846   10.0265 C.ar    1  UNL1        0.2058
      7 C           2.0114   27.6042   11.3685 C.3     1  UNL1        0.2526
      8 O           1.4108   28.8853   11.2145 O.3     1  UNL1       -0.4683
      9 O           4.4493   32.0449    8.8089 O.3     1  UNL1       -0.4685
     10 C           4.5516   33.3600    9.4068 C.3     1  UNL1        0.2526
     11 O           4.3899   30.0863   10.6933 O.3     1  UNL1       -0.4654
     12 C           5.3167   29.0849   10.3833 C.3     1  UNL1        0.2528
     13 C           2.4210   32.2024    6.7128 C.3     1  UNL1        0.1024
     14 N           3.4324   31.8201    5.7112 N.3     1  UNL1       -0.2664
     15 C           2.8719   31.2755    4.4781 C.3     1  UNL1        0.0897
     16 C           2.5543   32.3540    3.4054 C.3     1  UNL1        0.0862
     17 N           3.4892   33.4313    3.1103 N.3     1  UNL1       -0.2951
     18 C           4.0494   33.9259    4.3728 C.3     1  UNL1        0.0862
     19 C           4.4648   32.8005    5.3480 C.3     1  UNL1        0.0897
     20 H           2.9198   34.1920    2.7192 H       1  UNL1        0.1233
@<TRIPOS>BOND
     1     7     8    1
     2     8     1    1
     3     1     2   ar
     4     1     6   ar
     5     2     3   ar
     6     3     4   ar
     7     4    13    1
     8     4     5   ar
     9    13    14    1
    10    14    15    1
    11    14    19    1
    12    15    16    1
    13    16    17    1
    14    17    18    1
    15    17    20    1
    16    18    19    1
    17     5     9    1
    18     5     6   ar
    19     9    10    1
    20     6    11    1
    21    11    12    1



#	Name:			CHEMBL20883
#	Creating user name:	trannguyen
#	Creation time:		Wed Dec  7 14:36:25 2022


#	Modifying user name:	trannguyen
#	Modification time:	Wed Dec  7 14:36:25 2022

@<TRIPOS>MOLECULE
CHEMBL20883
 15 16 0 0 0
SMALL
GASTEIGER

@<TRIPOS>ATOM
      1 O           3.4654   34.0307    6.1854 O.2     1  UNL1       -0.2646
      2 C           3.1548   33.2306    7.0601 C.ar    1  UNL1        0.2901
      3 N           2.9928   33.6023    8.3695 N.ar    1  UNL1       -0.2725
      4 H           3.1351   34.5761    8.5886 H       1  UNL1        0.1735
      5 C           2.6136   32.7859    9.4063 C.ar    1  UNL1        0.3323
      6 O           2.4492   33.2513   10.5314 O.2     1  UNL1       -0.2464
      7 N           2.4266   31.4454    9.0829 N.ar    1  UNL1       -0.2549
      8 C           2.5646   30.9881    7.7837 C.ar    1  UNL1        0.1164
      9 C           2.9137   31.8017    6.7881 C.ar    1  UNL1        0.2130
     10 F           3.0502   31.3745    5.5197 F       1  UNL1       -0.1975
     11 C           2.0065   30.5585   10.1589 C.3     1  UNL1        0.2081
     12 C           1.0007   29.5073    9.7074 C.3     1  UNL1        0.0566
     13 C           1.2384   28.4063   10.7085 C.3     1  UNL1        0.0367
     14 C           2.7388   28.4694   10.8898 C.3     1  UNL1        0.1444
     15 O           3.1252   29.8395   10.7119 O.3     1  UNL1       -0.3354
@<TRIPOS>BOND
     1     1     2    2
     2     2     3   ar
     3     2     9   ar
     4     3     4    1
     5     3     5   ar
     6     5     6    2
     7     5     7   ar
     8     7    11    1
     9     7     8   ar
    10    11    12    1
    11    11    15    1
    12    12    13    1
    13    13    14    1
    14    14    15    1
    15     8     9   ar
    16     9    10    1



#	Name:			CHEMBL21
#	Creating user name:	trannguyen
#	Creation time:		Wed Dec  7 14:36:25 2022


#	Modifying user name:	trannguyen
#	Modification time:	Wed Dec  7 14:36:25 2022

@<TRIPOS>MOLECULE
CHEMBL21
 15 15 0 0 0
SMALL
GASTEIGER

@<TRIPOS>ATOM
      1 N           4.4094   32.2170    8.0107 N.pl3   1  UNL1       -0.3570
      2 C           3.8082   31.2414    8.8143 C.ar    1  UNL1        0.0416
      3 C           2.4437   30.9633    8.6792 C.ar    1  UNL1        0.0155
      4 C           1.8544   29.9086    9.3821 C.ar    1  UNL1        0.0211
      5 C           2.6491   29.0972   10.1923 C.ar    1  UNL1        0.1218
      6 C           4.0224   29.3268   10.2965 C.ar    1  UNL1        0.0211
      7 C           4.5985   30.3830    9.5859 C.ar    1  UNL1        0.0155
      8 H           3.7834   32.9714    7.7453 H       1  UNL1        0.1424
      9 H           5.2900   32.5646    8.3778 H       1  UNL1        0.1424
     10 S           1.9254   27.7639   11.0974 S.O2    1  UNL1        0.0572
     11 N           0.2878   27.9555   10.7758 N.3     1  UNL1       -0.2035
     12 O           2.3154   26.5187   10.4803 O.2     1  UNL1       -0.1532
     13 O           2.0679   28.0092   12.5141 O.2     1  UNL1       -0.1532
     14 H          -0.0676   27.1294   10.2936 H       1  UNL1        0.1442
     15 H          -0.2087   28.1742   11.6396 H       1  UNL1        0.1442
@<TRIPOS>BOND
     1     1     2    1
     2     1     8    1
     3     1     9    1
     4     2     3   ar
     5     2     7   ar
     6     3     4   ar
     7     4     5   ar
     8     5    10    1
     9     5     6   ar
    10    10    11    1
    11    10    12    2
    12    10    13    2
    13    11    14    1
    14    11    15    1
    15     6     7   ar



#	Name:			CHEMBL2103747
#	Creating user name:	trannguyen
#	Creation time:		Wed Dec  7 14:36:25 2022


#	Modifying user name:	trannguyen
#	Modification time:	Wed Dec  7 14:36:25 2022

@<TRIPOS>MOLECULE
CHEMBL2103747
 49 55 0 0 0
SMALL
GASTEIGER

@<TRIPOS>ATOM
      1 N          11.6622   33.3323    8.3052 N.3     1  UNL1       -0.2735
      2 C          12.4257   34.0213    7.1722 C.3     1  UNL1        0.0768
      3 C          11.7257   35.3703    6.6810 C.3     1  UNL1        0.0692
      4 C          10.0018   35.3418    6.6806 C.3     1  UNL1        0.0368
      5 C           9.1172   34.1371    5.9879 C.3     1  UNL1        0.1203
      6 C           9.1654   32.8905    7.0491 C.3     1  UNL1        0.0811
      7 C          10.1801   33.5185    8.0577 C.3     1  UNL1        0.0655
      8 C           9.6025   35.0663    8.1722 C.3     1  UNL1        0.0415
      9 C          10.2418   36.1656    9.1040 C.3     1  UNL1        0.1189
     10 C          11.7482   36.2004    9.1018 C.3     1  UNL1        0.0589
     11 C          12.2253   36.4681    7.6900 C.3     1  UNL1        0.1165
     12 O          13.6569   36.5841    7.7330 O.3     1  UNL1       -0.3842
     13 C           7.9164   35.1078    8.4615 C.3     1  UNL1        0.0131
     14 C           7.4958   35.2543    9.9847 C.3     1  UNL1        0.0334
     15 C           6.9043   33.8640   10.5044 C.3     1  UNL1        0.1521
     16 O           6.2358   34.1942   11.7023 O.3     1  UNL1       -0.3807
     17 C           7.9456   32.5396   10.5783 C.3     1  UNL1        0.1732
     18 C           8.0099   31.6078    9.0875 C.3     1  UNL1        0.1767
     19 O           9.0958   30.6958    8.9784 O.3     1  UNL1       -0.3786
     20 C           7.8353   32.5102    7.7225 C.3     1  UNL1        0.1694
     21 C           7.2053   33.7462    8.2690 C.3     1  UNL1        0.0821
     22 C           5.9945   33.5157    9.3458 C.3     1  UNL1        0.1990
     23 H          13.9911   35.9931    8.4329 H       1  UNL1        0.2103
     24 H           6.8888   34.4219   12.3792 H       1  UNL1        0.2105
     25 H           8.9173   30.1311    8.2027 H       1  UNL1        0.2106
     26 C          12.4233   31.3176    9.6667 C.3     1  UNL1        0.0188
     27 C          11.9894   31.8803    8.3171 C.3     1  UNL1        0.0721
     28 O           9.6010   33.7653    4.7080 O.3     1  UNL1       -0.3534
     29 C           9.0325   34.5307    3.6490 C.3     1  UNL1        0.1740
     30 O           9.7186   37.4488    8.6608 O.3     1  UNL1       -0.3534
     31 C           9.5209   38.4442    9.6665 C.3     1  UNL1        0.1740
     32 O           9.2151   33.0983   10.9311 O.3     1  UNL1       -0.3485
     33 C           9.4503   33.1937   12.3235 C.3     1  UNL1        0.1742
     34 C          12.3097   35.7995    5.3083 C.3     1  UNL1        0.1459
     35 O          13.6514   35.3708    5.1225 O.3     1  UNL1       -0.3510
     36 C          13.8512   34.8102    3.8304 C.3     1  UNL1        0.1741
     37 O           7.0583   31.7461    6.7792 O.3     1  UNL1       -0.4530
     38 C           6.3521   32.3846    5.7883 C.2     1  UNL1        0.3174
     39 C           6.7139   31.6316    4.5293 C.3     1  UNL1        0.1212
     40 O           5.5306   33.3005    5.8956 O.2     1  UNL1       -0.2501
     41 O           5.4428   32.1377    9.4724 O.3     1  UNL1       -0.4466
     42 C           4.1507   31.8251    9.0524 C.2     1  UNL1        0.3412
     43 O           3.3179   32.5488    8.6287 O.2     1  UNL1       -0.2449
     44 C           3.7256   30.4581    9.5200 C.ar    1  UNL1        0.0756
     45 C           4.7311   29.5043    9.7596 C.ar    1  UNL1        0.0064
     46 C           4.4011   28.1857   10.0950 C.ar    1  UNL1        0.0002
     47 C           3.0621   27.8250   10.2035 C.ar    1  UNL1        0.0000
     48 C           2.0626   28.7868   10.0291 C.ar    1  UNL1        0.0002
     49 C           2.3962   30.1065    9.6996 C.ar    1  UNL1        0.0064
@<TRIPOS>BOND
     1    26    27    1
     2    27     1    1
     3     1     2    1
     4     1     7    1
     5     2     3    1
     6     3    34    1
     7     3     4    1
     8     3    11    1
     9    34    35    1
    10    35    36    1
    11     4     5    1
    12     4     8    1
    13     5     6    1
    14     5    28    1
    15    28    29    1
    16     6     7    1
    17     6    20    1
    18     8     7    1
    19     8     9    1
    20     8    13    1
    21     9    30    1
    22     9    10    1
    23    30    31    1
    24    10    11    1
    25    11    12    1
    26    12    23    1
    27    13    14    1
    28    13    21    1
    29    14    15    1
    30    15    16    1
    31    15    17    1
    32    15    22    1
    33    16    24    1
    34    17    18    1
    35    17    32    1
    36    32    33    1
    37    18    19    1
    38    18    20    1
    39    19    25    1
    40    20    37    1
    41    20    21    1
    42    37    38    1
    43    38    39    1
    44    38    40    2
    45    21    22    1
    46    22    41    1
    47    41    42    1
    48    42    43    2
    49    42    44    1
    50    44    45   ar
    51    44    49   ar
    52    45    46   ar
    53    46    47   ar
    54    47    48   ar
    55    48    49   ar



#	Name:			CHEMBL2105617
#	Creating user name:	trannguyen
#	Creation time:		Wed Dec  7 14:36:25 2022


#	Modifying user name:	trannguyen
#	Modification time:	Wed Dec  7 14:36:25 2022

@<TRIPOS>MOLECULE
CHEMBL2105617
 26 31 0 0 0
SMALL
GASTEIGER

@<TRIPOS>ATOM
      1 C           8.3209   34.1615   11.1484 C.3     1  UNL1        0.0430
      2 C           7.6453   34.7059    9.8558 C.3     1  UNL1        0.0088
      3 C           6.1442   34.3654   10.1195 C.3     1  UNL1        0.0180
      4 C           5.9436   32.8992    9.6064 C.3     1  UNL1        0.0779
      5 C           5.6143   32.1200    8.2804 C.3     1  UNL1        0.0934
      6 N           4.3108   32.3501    7.5891 N.pl3   1  UNL1       -0.3059
      7 C           3.5035   33.5290    7.8576 C.3     1  UNL1        0.1122
      8 C           4.6437   32.1662    6.2188 C.ar    1  UNL1        0.0439
      9 C           3.7384   32.0118    5.1806 C.ar    1  UNL1        0.0142
     10 C           4.2227   31.7673    3.8919 C.ar    1  UNL1        0.0012
     11 C           5.6015   31.6778    3.6508 C.ar    1  UNL1       -0.0002
     12 C           6.5154   31.8459    4.6913 C.ar    1  UNL1       -0.0029
     13 C           6.0242   32.1006    5.9627 C.ar    1  UNL1       -0.0056
     14 C           6.7667   32.4224    7.2091 C.3     1  UNL1        0.0639
     15 C           7.9712   31.6302    7.6625 C.3     1  UNL1        0.0242
     16 C           8.3066   32.4173    8.9382 C.3     1  UNL1        0.0623
     17 C           8.2249   33.9276    8.5822 C.3     1  UNL1        0.0422
     18 C           7.3579   33.8982    7.2768 C.3     1  UNL1        0.1170
     19 O           8.2507   34.1381    6.1798 O.3     1  UNL1       -0.3840
     20 N           7.2724   32.1933    9.9907 N.3     1  UNL1       -0.2520
     21 C           7.8727   32.6723   11.2527 C.3     1  UNL1        0.1720
     22 O           6.9361   32.4931   12.2954 O.3     1  UNL1       -0.3698
     23 H           7.6982   34.1864    5.3783 H       1  UNL1        0.2103
     24 H           6.5274   31.6362   12.0851 H       1  UNL1        0.2119
     25 C          10.2247   35.8411   10.9909 C.3     1  UNL1        0.0001
     26 C           9.8447   34.3743   11.1512 C.3     1  UNL1        0.0039
@<TRIPOS>BOND
     1    25    26    1
     2    26     1    1
     3     1     2    1
     4     1    21    1
     5     2     3    1
     6     2    17    1
     7     3     4    1
     8     4     5    1
     9     4    20    1
    10     5     6    1
    11     5    14    1
    12     6     7    1
    13     6     8    1
    14     8     9   ar
    15     8    13   ar
    16     9    10   ar
    17    10    11   ar
    18    11    12   ar
    19    12    13   ar
    20    13    14    1
    21    14    15    1
    22    14    18    1
    23    15    16    1
    24    16    17    1
    25    16    20    1
    26    17    18    1
    27    18    19    1
    28    19    23    1
    29    20    21    1
    30    21    22    1
    31    22    24    1



#	Name:			CHEMBL2105807
#	Creating user name:	trannguyen
#	Creation time:		Wed Dec  7 14:36:25 2022


#	Modifying user name:	trannguyen
#	Modification time:	Wed Dec  7 14:36:25 2022

@<TRIPOS>MOLECULE
CHEMBL2105807
 68 74 0 0 0
SMALL
GASTEIGER

@<TRIPOS>ATOM
      1 C          11.6611   34.2653   -2.5758 C.3     1  UNL1        0.1200
      2 C          12.6454   34.5930   -1.4520 C.3     1  UNL1        0.0322
      3 C          11.1792   32.8531   -2.5013 C.3     1  UNL1        0.0323
      4 C          10.2392   32.8262   -1.3328 C.3     1  UNL1        0.0345
      5 C           9.5999   34.2045   -1.3069 C.3     1  UNL1        0.1399
      6 O          10.3869   34.9801   -2.3049 O.3     1  UNL1       -0.3562
      7 C           7.9424   34.3979   -1.3287 C.3     1  UNL1        0.1200
      8 C           7.5019   34.2968   -2.7953 C.3     1  UNL1        0.0322
      9 C           7.5303   35.7243   -0.7235 C.3     1  UNL1        0.0347
     10 C           7.5879   35.4056    0.7608 C.3     1  UNL1        0.0588
     11 C           7.2924   33.8873    0.9160 C.3     1  UNL1        0.1892
     12 C           8.1898   32.6666    1.1353 C.3     1  UNL1        0.0855
     13 C           7.7447   31.5285    2.0352 C.3     1  UNL1        0.1177
     14 O           7.4237   30.3856    1.2643 O.3     1  UNL1       -0.3842
     15 C           6.6135   31.8994    2.9520 C.3     1  UNL1        0.0544
     16 C           6.4404   30.8893    4.0740 C.3     1  UNL1        0.0050
     17 C           6.7799   33.3828    3.2821 C.3     1  UNL1        0.1222
     18 O           6.3536   33.9746    2.0006 O.3     1  UNL1       -0.3365
     19 O           6.9957   33.5892   -0.4960 O.3     1  UNL1       -0.3366
     20 H           8.2443   30.1529    0.7925 H       1  UNL1        0.2103
     21 C           8.0837   33.9879    4.1091 C.3     1  UNL1        0.0572
     22 C           7.9511   35.4965    4.2914 C.3     1  UNL1        0.0051
     23 C           8.7303   33.4521    5.4982 C.3     1  UNL1        0.1493
     24 O           7.7413   33.0472    6.4931 O.3     1  UNL1       -0.3337
     25 C           7.9511   33.4050    7.9035 C.3     1  UNL1        0.1965
     26 O           9.0687   32.6968    8.4054 O.3     1  UNL1       -0.3631
     27 C           8.2003   34.9145    7.8692 C.3     1  UNL1        0.0815
     28 C           7.9841   35.7866    9.1002 C.3     1  UNL1        0.0076
     29 C           9.6157   35.1372    7.3291 C.3     1  UNL1        0.1493
     30 C           9.9402   34.2948    6.0646 C.3     1  UNL1        0.1695
     31 H           8.7885   31.8359    8.7482 H       1  UNL1        0.2128
     32 O           9.9395   36.5359    7.1927 O.3     1  UNL1       -0.3508
     33 C          11.1505   36.9714    7.7852 C.3     1  UNL1        0.1741
     34 O          10.9735   33.3061    6.3772 O.3     1  UNL1       -0.3486
     35 C          11.0573   32.2270    5.4557 C.3     1  UNL1        0.1742
     36 C           6.6754   33.0116    8.6714 C.3     1  UNL1        0.1651
     37 C           6.7629   32.3476   10.0560 C.2     1  UNL1        0.3188
     38 O           6.5990   32.8811   11.0894 O.2     1  UNL1       -0.2501
     39 O           7.2862   31.1011   10.0443 O.3     1  UNL1       -0.4801
     40 H           7.8247   31.0266   10.8578 H       1  UNL1        0.2951
     41 C          11.5543   34.4572   -5.3169 C.3     1  UNL1        0.1496
     42 C          11.0792   35.8791   -5.4987 C.3     1  UNL1        0.0643
     43 C          12.1810   36.7361   -4.8763 C.3     1  UNL1        0.1449
     44 O          12.9593   35.8587   -4.0276 O.3     1  UNL1       -0.3513
     45 C          12.3678   34.5291   -3.9837 C.3     1  UNL1        0.1669
     46 C          13.0824   37.5051   -5.8968 C.3     1  UNL1        0.1445
     47 O          12.8244   36.9493   -7.1984 O.3     1  UNL1       -0.3345
     48 C          13.0857   37.7954   -8.3157 C.3     1  UNL1        0.1835
     49 C          12.8771   36.9520   -9.5802 C.3     1  UNL1        0.0610
     50 O          14.4333   38.2290   -8.3111 O.3     1  UNL1       -0.3635
     51 C          12.1077   38.9861   -8.2938 C.3     1  UNL1        0.0514
     52 C          12.4417   40.1081   -9.2781 C.3     1  UNL1        0.0050
     53 C          11.9175   39.5745   -6.8921 C.3     1  UNL1        0.0073
     54 C          12.8430   39.0362   -5.8021 C.3     1  UNL1        0.0299
     55 C          14.1517   39.8357   -5.7406 C.3     1  UNL1        0.0026
     56 H          14.9743   37.4521   -8.5249 H       1  UNL1        0.2128
     57 O          10.4545   33.5552   -5.4459 O.3     1  UNL1       -0.3303
     58 C           7.2246   32.9634   -7.2761 C.3     1  UNL1        0.1498
     59 C           8.1481   33.1385   -6.0831 C.3     1  UNL1        0.0934
     60 C           9.4043   33.9277   -6.3743 C.3     1  UNL1        0.2377
     61 O           9.8725   33.6895   -7.7087 O.3     1  UNL1       -0.3304
     62 C           8.9806   34.0999   -8.7530 C.3     1  UNL1        0.1472
     63 C           9.2648   33.3386  -10.0516 C.3     1  UNL1        0.0348
     64 C           7.4777   33.9928   -8.3985 C.3     1  UNL1        0.1694
     65 C           6.5816   31.2789   -8.8427 C.3     1  UNL1        0.1741
     66 O           7.3804   31.6045   -7.7161 O.3     1  UNL1       -0.3508
     67 O           7.0102   35.2897   -7.9759 O.3     1  UNL1       -0.3486
     68 C           6.4174   36.0388   -9.0428 C.3     1  UNL1        0.1742
@<TRIPOS>BOND
     1    65    66    1
     2    66    58    1
     3    58    59    1
     4    58    64    1
     5    59    60    1
     6    60    61    1
     7    60    57    1
     8    57    41    1
     9    41    42    1
    10    41    45    1
    11    42    43    1
    12    43    46    1
    13    43    44    1
    14    46    47    1
    15    46    54    1
    16    47    48    1
    17    48    49    1
    18    48    50    1
    19    48    51    1
    20    50    56    1
    21    51    52    1
    22    51    53    1
    23    53    54    1
    24    54    55    1
    25    44    45    1
    26     1     3    1
    27     1     6    1
    28     1    45    1
    29     1     2    1
    30     3     4    1
    31     4     5    1
    32     5     6    1
    33     5     7    1
    34     7     9    1
    35     7    19    1
    36     7     8    1
    37     9    10    1
    38    11    10    1
    39    11    12    1
    40    11    18    1
    41    11    19    1
    42    12    13    1
    43    13    15    1
    44    13    14    1
    45    14    20    1
    46    15    17    1
    47    15    16    1
    48    17    18    1
    49    17    21    1
    50    21    22    1
    51    23    24    1
    52    23    30    1
    53    23    21    1
    54    24    25    1
    55    25    26    1
    56    25    36    1
    57    25    27    1
    58    26    31    1
    59    36    37    1
    60    37    38    2
    61    37    39    1
    62    39    40    1
    63    27    29    1
    64    27    28    1
    65    29    32    1
    66    29    30    1
    67    32    33    1
    68    30    34    1
    69    34    35    1
    70    61    62    1
    71    62    64    1
    72    62    63    1
    73    64    67    1
    74    67    68    1



#	Name:			CHEMBL2106399
#	Creating user name:	trannguyen
#	Creation time:		Wed Dec  7 14:36:25 2022


#	Modifying user name:	trannguyen
#	Modification time:	Wed Dec  7 14:36:25 2022

@<TRIPOS>MOLECULE
CHEMBL2106399
 59 61 0 0 0
SMALL
GASTEIGER

@<TRIPOS>ATOM
      1 C           7.4801   36.0506   -6.4496 C.3     1  UNL1        0.2645
      2 O           8.7321   36.3360   -7.0522 O.3     1  UNL1       -0.3286
      3 C           9.6642   35.2086   -7.0459 C.3     1  UNL1        0.1464
      4 C          10.3398   35.3747   -8.4078 C.3     1  UNL1        0.0348
      5 C           9.0497   33.7806   -6.9190 C.3     1  UNL1        0.1618
      6 C           7.8336   33.6874   -7.8780 C.3     1  UNL1        0.1197
      7 C           6.8539   34.5442   -7.1318 C.3     1  UNL1        0.1840
      8 O           6.2762   33.3032   -6.4932 O.3     1  UNL1       -0.3783
      9 H           6.9623   32.7971   -5.9652 H       1  UNL1        0.2106
     10 N           7.6015   33.7448   -9.3454 N.3     1  UNL1       -0.2672
     11 C           6.8875   32.5248   -9.7546 C.3     1  UNL1        0.0898
     12 C           6.6178   34.8451   -9.6372 C.3     1  UNL1        0.0898
     13 O           6.5017   37.1285   -6.2751 O.3     1  UNL1       -0.3286
     14 C           8.2542   38.8063   -7.6168 C.3     1  UNL1        0.1695
     15 C           6.8136   38.4332   -6.9328 C.3     1  UNL1        0.1476
     16 C           6.2255   39.5757   -6.0066 C.3     1  UNL1        0.0377
     17 C           6.2917   39.2713   -4.4813 C.3     1  UNL1        0.0057
     18 C           6.6762   40.4500   -3.5191 C.3     1  UNL1        0.0312
     19 C           5.7210   41.6358   -3.3968 C.3     1  UNL1        0.0028
     20 C           6.8342   39.9687   -2.0632 C.3     1  UNL1        0.1324
     21 O           5.7904   39.0554   -1.7202 O.3     1  UNL1       -0.3801
     22 C           8.2533   39.5126   -1.7726 C.2     1  UNL1        0.0025
     23 C           8.6008   38.3572   -1.1913 C.2     1  UNL1       -0.0025
     24 C           9.8353   38.0434   -0.4836 C.2     1  UNL1       -0.0047
     25 C          11.0785   37.5799   -0.7542 C.2     1  UNL1       -0.0224
     26 C          11.9574   37.1870   -1.9437 C.3     1  UNL1        0.0696
     27 C          12.3509   38.2580   -2.9951 C.3     1  UNL1        0.1733
     28 C          13.2251   39.2958   -2.2900 C.3     1  UNL1        0.0477
     29 O          11.1297   38.7809   -3.6127 O.3     1  UNL1       -0.4519
     30 C          11.1822   39.3232   -4.9092 C.2     1  UNL1        0.3195
     31 O          12.1479   39.6499   -5.4734 O.2     1  UNL1       -0.2500
     32 C           9.6692   39.1620   -5.5001 C.3     1  UNL1        0.1412
     33 C           9.3605   39.7248   -6.8795 C.3     1  UNL1        0.1510
     34 O           8.9955   41.0782   -6.6689 O.3     1  UNL1       -0.3813
     35 H           4.9556   39.3766   -2.1179 H       1  UNL1        0.2108
     36 H           9.6154   41.5982   -7.2170 H       1  UNL1        0.2105
     37 C           6.9330   38.7926   -9.6372 C.3     1  UNL1        0.1742
     38 O           8.0575   39.3257   -8.9624 O.3     1  UNL1       -0.3486
     39 C           4.7551   39.7026   -6.4728 C.3     1  UNL1        0.0747
     40 C           4.2772   41.0670   -6.8322 C.2     1  UNL1        0.2075
     41 O           3.4618   41.7178   -6.2021 O.2     1  UNL1       -0.2883
     42 O           8.5840   33.3189   -5.4259 O.3     1  UNL1       -0.3290
     43 C           9.4714   33.7174   -4.2566 C.3     1  UNL1        0.2377
     44 C           8.9899   34.8391   -3.1787 C.3     1  UNL1        0.0918
     45 C           8.0264   34.0852   -2.2664 C.3     1  UNL1        0.1322
     46 C           7.1085   35.0853   -1.5043 C.3     1  UNL1        0.0333
     47 O           7.2554   33.1408   -3.0320 O.3     1  UNL1       -0.3830
     48 C           8.8971   33.2590   -1.3431 C.3     1  UNL1        0.2200
     49 C          10.2348   32.9129   -1.9958 C.3     1  UNL1        0.1600
     50 C          11.0886   33.7302   -1.1201 C.3     1  UNL1        0.0361
     51 O          10.2422   32.8171   -3.4360 O.3     1  UNL1       -0.3291
     52 H           7.8721   32.4317   -3.3408 H       1  UNL1        0.2104
     53 O           8.2829   32.1088   -0.8372 O.3     1  UNL1       -0.4473
     54 C           8.4099   31.9316    0.5268 C.2     1  UNL1        0.3170
     55 O           9.0798   31.2096    1.1699 O.2     1  UNL1       -0.2501
     56 C           7.3854   32.8564    1.1634 C.3     1  UNL1        0.1096
     57 C           8.1230   33.5058    2.2771 C.3     1  UNL1        0.0111
     58 C           8.2991   34.9933    1.9529 C.3     1  UNL1        0.0006
     59 C           7.3659   33.3619    3.5847 C.3     1  UNL1        0.0006
@<TRIPOS>BOND
     1    37    38    1
     2    38    14    1
     3    14    15    1
     4    14    33    1
     5    15    13    1
     6    15    16    1
     7     1     2    1
     8     1     7    1
     9     1    13    1
    10     2     3    1
    11     3     4    1
    12     3     5    1
    13     5     6    1
    14     5    42    1
    15    42    43    1
    16    43    44    1
    17    43    51    1
    18    44    45    1
    19    45    48    1
    20    45    47    1
    21    45    46    1
    22    47    52    1
    23    48    49    1
    24    48    53    1
    25    53    54    1
    26    54    55    2
    27    54    56    1
    28    56    57    1
    29    57    58    1
    30    57    59    1
    31    49    50    1
    32    49    51    1
    33     6    10    1
    34     6     7    1
    35    10    11    1
    36    10    12    1
    37     7     8    1
    38     8     9    1
    39    16    39    1
    40    16    17    1
    41    39    40    1
    42    40    41    2
    43    17    18    1
    44    18    19    1
    45    18    20    1
    46    20    21    1
    47    20    22    1
    48    21    35    1
    49    22    23    2
    50    23    24    1
    51    24    25    2
    52    25    26    1
    53    26    27    1
    54    27    28    1
    55    27    29    1
    56    29    30    1
    57    30    31    2
    58    30    32    1
    59    32    33    1
    60    33    34    1
    61    34    36    1



#	Name:			CHEMBL2107687
#	Creating user name:	trannguyen
#	Creation time:		Wed Dec  7 14:36:25 2022


#	Modifying user name:	trannguyen
#	Modification time:	Wed Dec  7 14:36:25 2022

@<TRIPOS>MOLECULE
CHEMBL2107687
 22 22 0 0 0
SMALL
GASTEIGER

@<TRIPOS>ATOM
      1 C           3.7295   31.5021    8.8034 C.3     1  UNL1        0.1212
      2 C           3.3048   30.2090    9.4995 C.ar    1  UNL1       -0.0120
      3 C           4.2397   29.1697    9.6335 C.ar    1  UNL1       -0.0037
      4 C           3.8925   27.9535   10.2254 C.ar    1  UNL1       -0.0003
      5 C           2.6023   27.7569   10.7051 C.ar    1  UNL1       -0.0000
      6 C           1.6635   28.7783   10.5964 C.ar    1  UNL1       -0.0003
      7 C           2.0131   29.9978   10.0070 C.ar    1  UNL1       -0.0037
      8 C           3.5456   31.5524    7.2535 C.3     1  UNL1        0.0147
      9 C           4.1188   32.8182    6.5961 C.3     1  UNL1        0.0009
     10 C           1.8479   31.7470    5.3293 C.3     1  UNL1        0.0000
     11 C           2.0933   31.3460    6.7764 C.3     1  UNL1        0.0009
     12 C           3.1249   32.7542    9.4702 C.2     1  UNL1        0.3208
     13 O           2.0812   33.2880    9.2192 O.2     1  UNL1       -0.2498
     14 O           4.0789   33.2520   10.3446 O.3     1  UNL1       -0.4418
     15 C           5.0630   34.1504    9.7861 C.3     1  UNL1        0.2688
     16 C           6.4042   34.0618   10.5365 C.3     1  UNL1        0.1570
     17 N           7.5716   33.3565    9.7686 N.4     1  UNL1        0.3044
     18 C           7.3639   33.7282    8.2962 C.3     1  UNL1        0.1706
     19 C           8.9466   33.8283   10.2773 C.3     1  UNL1        0.1091
     20 C           9.2764   33.3907   11.7044 C.3     1  UNL1        0.0671
     21 C           7.3775   31.8149    9.9187 C.3     1  UNL1        0.1091
     22 C           7.3614   31.0526    8.5956 C.3     1  UNL1        0.0671
@<TRIPOS>UNITY_ATOM_ATTR
17 1
charge 1
@<TRIPOS>BOND
     1    10    11    1
     2    11     8    1
     3     8     9    1
     4     8     1    1
     5     1    12    1
     6     1     2    1
     7    12    13    2
     8    12    14    1
     9    14    15    1
    10    15    16    1
    11    16    17    1
    12    17    18    1
    13    17    19    1
    14    17    21    1
    15    19    20    1
    16    21    22    1
    17     2     3   ar
    18     2     7   ar
    19     3     4   ar
    20     4     5   ar
    21     5     6   ar
    22     6     7   ar



#	Name:			CHEMBL2107797
#	Creating user name:	trannguyen
#	Creation time:		Wed Dec  7 14:36:25 2022


#	Modifying user name:	trannguyen
#	Modification time:	Wed Dec  7 14:36:25 2022

@<TRIPOS>MOLECULE
CHEMBL2107797
 24 27 0 0 0
SMALL
GASTEIGER

@<TRIPOS>ATOM
      1 C           3.1847   33.6061    4.9621 C.3     1  UNL1        0.1420
      2 O           3.0990   34.8564    5.6567 O.3     1  UNL1       -0.3753
      3 C           1.7650   33.2730    4.5048 C.3     1  UNL1        0.0395
      4 C           1.0927   32.8099    5.7900 C.3     1  UNL1        0.0035
      5 C           2.1655   32.0216    6.5663 C.3     1  UNL1        0.0032
      6 C           2.0586   32.2330    8.0955 C.3     1  UNL1        0.0007
      7 C           0.7175   31.7706    8.6887 C.3     1  UNL1        0.0044
      8 C           0.5555   30.2577    8.6720 C.3     1  UNL1        0.0221
      9 C           1.7048   29.5649    9.3570 C.2     1  UNL1       -0.0417
     10 C           1.4623   28.5669   10.2252 C.2     1  UNL1        0.0290
     11 C           2.5633   27.7568   10.7965 C.2     1  UNL1        0.1725
     12 O           2.3035   26.8560   11.5902 O.2     1  UNL1       -0.2914
     13 C           3.9585   28.0054   10.2857 C.3     1  UNL1        0.0695
     14 C           4.1543   29.4802    9.9742 C.3     1  UNL1        0.0121
     15 C           3.1064   30.0150    8.9699 C.3     1  UNL1        0.0188
     16 C           3.2348   31.5678    8.8506 C.3     1  UNL1        0.0037
     17 C           4.6046   31.9831    8.2623 C.3     1  UNL1        0.0004
     18 C           4.5054   32.9515    7.0827 C.3     1  UNL1        0.0032
     19 C           3.5505   32.4499    5.9593 C.3     1  UNL1        0.0333
     20 H           2.9822   35.5480    4.9828 H       1  UNL1        0.2114
     21 C           4.8964   33.9220    2.9350 C.1     1  UNL1       -0.0119
     22 C           4.1197   33.7823    3.8413 C.1     1  UNL1       -0.0526
     23 C           4.2338   31.2053    5.2797 C.3     1  UNL1        0.0032
     24 C           3.5906   30.6053    4.0336 C.3     1  UNL1        0.0001
@<TRIPOS>BOND
     1    21    22    3
     2    22     1    1
     3     1     3    1
     4     1    19    1
     5     1     2    1
     6     2    20    1
     7     3     4    1
     8     4     5    1
     9     5     6    1
    10     5    19    1
    11     6     7    1
    12     6    16    1
    13     7     8    1
    14     8     9    1
    15     9    10    2
    16     9    15    1
    17    10    11    1
    18    11    13    1
    19    11    12    2
    20    13    14    1
    21    14    15    1
    22    15    16    1
    23    16    17    1
    24    17    18    1
    25    18    19    1
    26    19    23    1
    27    23    24    1



#	Name:			CHEMBL2111268
#	Creating user name:	trannguyen
#	Creation time:		Wed Dec  7 14:36:25 2022


#	Modifying user name:	trannguyen
#	Modification time:	Wed Dec  7 14:36:25 2022

@<TRIPOS>MOLECULE
CHEMBL2111268
 31 34 0 0 0
SMALL
GASTEIGER

@<TRIPOS>ATOM
      1 C           3.2263   33.6350    4.4735 C.3     1  UNL1        0.0521
      2 C           4.6920   33.3001    4.3863 C.ar    1  UNL1        0.0593
      3 N           5.1917   33.2998    3.1244 N.ar    1  UNL1       -0.2497
      4 C           6.4988   33.0271    2.9434 C.ar    1  UNL1        0.0809
      5 C           7.3235   32.7316    4.0293 C.ar    1  UNL1        0.0191
      6 C           6.8379   32.7046    5.3595 C.ar    1  UNL1        0.0026
      7 C           5.4637   33.0097    5.5335 C.ar    1  UNL1        0.0134
      8 C           7.8019   32.3660    6.4609 C.ar    1  UNL1        0.0002
      9 C           8.5506   33.3760    7.1129 C.ar    1  UNL1        0.0023
     10 C           9.4376   33.0899    8.1593 C.ar    1  UNL1        0.0296
     11 C           9.6143   31.7781    8.5634 C.ar    1  UNL1        0.1401
     12 F          10.4766   31.4955    9.5482 F       1  UNL1       -0.2042
     13 C           8.9000   30.7566    7.9601 C.ar    1  UNL1        0.0296
     14 C           7.9904   31.0536    6.9357 C.ar    1  UNL1        0.0023
     15 C           6.9790   33.0616    1.5412 C.ar    1  UNL1        0.0176
     16 C           6.6443   34.1308    0.6864 C.ar    1  UNL1        0.0015
     17 C           7.0881   34.1780   -0.6405 C.ar    1  UNL1        0.0000
     18 C           7.8853   33.1559   -1.1450 C.ar    1  UNL1        0.0000
     19 C           8.2401   32.0913   -0.3232 C.ar    1  UNL1        0.0000
     20 C           7.7939   32.0474    1.0028 C.ar    1  UNL1        0.0015
     21 C           4.7864   33.0568    6.8438 C.2     1  UNL1        0.0001
     22 C           4.3124   31.9711    7.4771 C.2     1  UNL1        0.0168
     23 C           3.5274   32.0283    8.7650 C.3     1  UNL1        0.1933
     24 C           2.1768   31.3447    8.6210 C.3     1  UNL1        0.0781
     25 C           1.3945   31.5335    9.9074 C.3     1  UNL1        0.1256
     26 O           2.0417   30.8256   10.9627 O.3     1  UNL1       -0.3837
     27 C           1.2681   33.0008   10.2575 C.3     1  UNL1        0.1388
     28 C           2.5313   33.8042   10.0743 C.2     1  UNL1        0.3197
     29 O           2.6970   34.8588   10.6726 O.2     1  UNL1       -0.2500
     30 O           3.3758   33.4207    9.0886 O.3     1  UNL1       -0.4475
     31 H           1.4556   30.8411   11.7420 H       1  UNL1        0.2104
@<TRIPOS>BOND
     1     1     2    1
     2     2     3   ar
     3     2     7   ar
     4     3     4   ar
     5     4    15    1
     6     4     5   ar
     7    15    16   ar
     8    15    20   ar
     9    16    17   ar
    10    17    18   ar
    11    18    19   ar
    12    19    20   ar
    13     5     6   ar
    14     6     8    1
    15     6     7   ar
    16     8     9   ar
    17     8    14   ar
    18     9    10   ar
    19    10    11   ar
    20    11    12    1
    21    11    13   ar
    22    13    14   ar
    23     7    21    1
    24    21    22    2
    25    22    23    1
    26    23    24    1
    27    23    30    1
    28    24    25    1
    29    25    27    1
    30    25    26    1
    31    26    31    1
    32    27    28    1
    33    28    29    2
    34    28    30    1






#	Name:			CHEMBL211501
#	Creating user name:	trannguyen
#	Creation time:		Wed Dec  7 14:36:25 2022


#	Modifying user name:	trannguyen
#	Modification time:	Wed Dec  7 14:36:25 2022

@<TRIPOS>MOLECULE
CHEMBL211501
 42 43 0 0 0
SMALL
GASTEIGER

@<TRIPOS>ATOM
      1 C           7.4612   33.7201    5.2427 C.3     1  UNL1        0.1426
      2 C           8.0827   34.8841    4.4639 C.2     1  UNL1        0.3201
      3 O           8.8881   35.6734    4.9494 O.2     1  UNL1       -0.2500
      4 O           7.7135   34.9301    3.1653 O.3     1  UNL1       -0.4499
      5 C           8.7829   35.0850    2.2025 C.3     1  UNL1        0.1976
      6 C           8.6364   36.4428    1.5223 C.3     1  UNL1        0.0498
      7 C           8.7653   33.8401    1.2659 C.3     1  UNL1        0.2121
      8 C           7.4780   33.0259    1.4786 C.2     1  UNL1        0.3387
      9 O           6.5155   33.0441    0.7326 O.2     1  UNL1       -0.2481
     10 O           7.5651   32.3804    2.6821 O.3     1  UNL1       -0.4473
     11 C           6.3365   32.1178    3.3828 C.3     1  UNL1        0.2092
     12 C           6.3643   30.6552    3.8268 C.3     1  UNL1        0.0513
     13 C           6.1868   33.0905    4.6000 C.3     1  UNL1        0.2189
     14 N           8.9193   34.1099   -0.1618 N.am    1  UNL1       -0.2903
     15 C           9.6094   33.2370   -0.9836 C.2     1  UNL1        0.2493
     16 O          10.1699   32.2433   -0.5746 O.2     1  UNL1       -0.2700
     17 H           8.3022   34.8117   -0.5560 H       1  UNL1        0.1503
     18 C           9.5811   33.5523   -2.4414 C.ar    1  UNL1        0.0882
     19 C          10.7773   33.6942   -3.1492 C.ar    1  UNL1        0.0076
     20 C          10.7633   33.9240   -4.5225 C.ar    1  UNL1        0.0016
     21 C           9.5557   33.9329   -5.2187 C.ar    1  UNL1        0.0178
     22 C           8.3467   33.7641   -4.5391 C.ar    1  UNL1        0.0850
     23 C           8.3592   33.6346   -3.1371 C.ar    1  UNL1        0.1513
     24 O           7.1359   33.6577   -2.5087 O.3     1  UNL1       -0.5041
     25 H           7.2803   33.7353   -1.5438 H       1  UNL1        0.2923
     26 N           7.1028   33.7060   -5.1934 N.am    1  UNL1       -0.2743
     27 C           6.6132   34.5636   -6.1349 C.2     1  UNL1        0.3036
     28 O           5.5312   34.4254   -6.6824 O.2     1  UNL1       -0.2648
     29 H           6.5194   32.9000   -4.9796 H       1  UNL1        0.1554
     30 C           8.4930   32.6380    5.6436 C.3     1  UNL1        0.0149
     31 C           8.6273   32.3743    7.1493 C.3     1  UNL1        0.0007
     32 C           8.0645   30.9946    7.5341 C.3     1  UNL1        0.0000
     33 C           7.0888   31.0474    8.7190 C.3     1  UNL1        0.0000
     34 C           5.5069   32.9704    9.2241 C.3     1  UNL1        0.0000
     35 C           5.7510   31.7177    8.3957 C.3     1  UNL1        0.0000
     36 O           5.3115   34.1921    4.2468 O.3     1  UNL1       -0.4479
     37 C           3.9766   33.9831    4.4318 C.2     1  UNL1        0.3170
     38 O           3.1052   34.3178    3.6495 O.2     1  UNL1       -0.2501
     39 C           3.7355   33.2391    5.7260 C.3     1  UNL1        0.1096
     40 C           2.5843   32.2273    5.7044 C.3     1  UNL1        0.0111
     41 C           2.8215   31.0727    4.7324 C.3     1  UNL1        0.0006
     42 C           2.2393   31.7083    7.1000 C.3     1  UNL1        0.0006
@<TRIPOS>BOND
     1    34    35    1
     2    35    33    1
     3    33    32    1
     4    32    31    1
     5    31    30    1
     6    30     1    1
     7     1     2    1
     8     1    13    1
     9     2     3    2
    10     2     4    1
    11     4     5    1
    12     5     6    1
    13     5     7    1
    14     7    14    1
    15     7     8    1
    16    14    15   am
    17    14    17    1
    18    15    16    2
    19    15    18    1
    20    18    19   ar
    21    18    23   ar
    22    19    20   ar
    23    20    21   ar
    24    21    22   ar
    25    22    26    1
    26    22    23   ar
    27    26    27   am
    28    26    29    1
    29    27    28    2
    30    23    24    1
    31    24    25    1
    32     8     9    2
    33     8    10    1
    34    10    11    1
    35    11    13    1
    36    11    12    1
    37    13    36    1
    38    36    37    1
    39    37    38    2
    40    37    39    1
    41    39    40    1
    42    40    41    1
    43    40    42    1



#	Name:			CHEMBL2203595
#	Creating user name:	trannguyen
#	Creation time:		Wed Dec  7 14:36:25 2022


#	Modifying user name:	trannguyen
#	Modification time:	Wed Dec  7 14:36:25 2022

@<TRIPOS>MOLECULE
CHEMBL2203595
 36 39 0 0 0
SMALL
GASTEIGER

@<TRIPOS>ATOM
      1 C           5.1142   32.9273    8.4206 C.3     1  UNL1        0.0031
      2 C           5.1354   32.6419    9.9479 C.3     1  UNL1        0.0296
      3 C           6.5972   32.4516   10.3648 C.3     1  UNL1        0.1141
      4 O           6.7694   32.8545   11.7155 O.3     1  UNL1       -0.3841
      5 C           7.4133   33.2794    9.3401 C.3     1  UNL1        0.0433
      6 C           7.2764   34.8022    9.6537 C.3     1  UNL1        0.0068
      7 C           8.9184   32.8734    9.3446 C.2     1  UNL1       -0.0291
      8 C           9.7876   33.3942   10.2342 C.2     1  UNL1       -0.0306
      9 C          11.2530   33.1138   10.2805 C.3     1  UNL1        0.0264
     10 C          11.8411   32.6402    8.9413 C.3     1  UNL1        0.0146
     11 C          12.2998   33.7843    7.9638 C.3     1  UNL1        0.0521
     12 C          11.1665   34.6751    7.4394 C.3     1  UNL1        0.0074
     13 C          13.3556   34.6890    8.6385 C.3     1  UNL1        0.0074
     14 C          12.9912   33.1423    6.7463 C.2     1  UNL1        0.1499
     15 O          13.6913   33.7927    5.9682 O.2     1  UNL1       -0.2961
     16 C          12.8037   31.6593    6.5375 C.3     1  UNL1        0.0648
     17 C          11.3513   31.3087    6.8034 C.3     1  UNL1        0.0118
     18 C          10.9144   31.5510    8.2861 C.3     1  UNL1        0.0194
     19 C          11.1115   30.2177    9.0617 C.3     1  UNL1        0.0044
     20 C           9.4025   31.8917    8.3642 C.2     1  UNL1       -0.0312
     21 C           8.5251   31.2468    7.5745 C.2     1  UNL1       -0.0307
     22 C           7.0559   31.4765    7.5536 C.3     1  UNL1        0.0261
     23 C           6.6409   32.8963    8.0055 C.3     1  UNL1        0.0097
     24 C           6.9413   33.9132    6.8796 C.3     1  UNL1        0.0007
     25 H           7.6881   32.6379   11.9537 H       1  UNL1        0.2103
     26 C           4.0809   32.0181    7.6608 C.3     1  UNL1        0.0004
     27 C           3.6889   32.5732    6.2837 C.3     1  UNL1        0.0000
     28 C           2.7841   31.8164    8.5062 C.3     1  UNL1        0.0047
     29 C           1.9095   30.6354    8.0494 C.3     1  UNL1        0.0259
     30 C           3.5939   28.8415    9.9626 C.3     1  UNL1        0.0375
     31 C           2.1017   29.0484   10.0468 C.2     1  UNL1        0.0493
     32 C           1.3820   29.8235    9.2090 C.2     1  UNL1       -0.0240
     33 C           1.5011   28.3271   11.2141 C.2     1  UNL1        0.3337
     34 O           2.1372   28.0557   12.2206 O.2     1  UNL1       -0.2455
     35 O           0.2205   27.9640   11.0549 O.3     1  UNL1       -0.4773
     36 H          -0.1474   28.0838   10.1700 H       1  UNL1        0.2954
@<TRIPOS>BOND
     1    30    31    1
     2    31    32    2
     3    31    33    1
     4    32    29    1
     5    29    28    1
     6    28    26    1
     7    26    27    1
     8     1     2    1
     9     1    23    1
    10     1    26    1
    11     2     3    1
    12     3     5    1
    13     3     4    1
    14     4    25    1
    15     5     7    1
    16     5    23    1
    17     5     6    1
    18     7     8    2
    19     7    20    1
    20     8     9    1
    21     9    10    1
    22    10    11    1
    23    10    18    1
    24    11    14    1
    25    11    12    1
    26    11    13    1
    27    14    16    1
    28    14    15    2
    29    16    17    1
    30    17    18    1
    31    18    20    1
    32    18    19    1
    33    20    21    2
    34    21    22    1
    35    22    23    1
    36    23    24    1
    37    33    34    2
    38    33    35    1
    39    35    36    1



#	Name:			CHEMBL221753
#	Creating user name:	trannguyen
#	Creation time:		Wed Dec  7 14:36:25 2022


#	Modifying user name:	trannguyen
#	Modification time:	Wed Dec  7 14:36:25 2022

@<TRIPOS>MOLECULE
CHEMBL221753
 30 31 0 0 0
SMALL
GASTEIGER

@<TRIPOS>ATOM
      1 O           4.3929   32.6426    4.4455 O.3     1  UNL1       -0.4727
      2 C           2.4495   31.7192    8.0709 C.ar    1  UNL1       -0.0226
      3 C           3.5684   32.5788    8.0040 C.ar    1  UNL1       -0.0012
      4 C           4.1779   32.8879    6.7772 C.ar    1  UNL1        0.0366
      5 C           3.6951   32.3612    5.5952 C.ar    1  UNL1        0.1387
      6 C           2.5422   31.5609    5.6395 C.ar    1  UNL1        0.0366
      7 C           1.9510   31.2325    6.8603 C.ar    1  UNL1       -0.0012
      8 C           1.7716   31.2833    9.4044 C.3     1  UNL1        0.0189
      9 C           0.4457   30.5408    9.1453 C.3     1  UNL1        0.0044
     10 C           1.4195   32.5867   10.1545 C.3     1  UNL1        0.0044
     11 C           2.7800   30.3521   10.1702 C.3     1  UNL1        0.0040
     12 C           2.0327   28.3822   11.5197 C.3     1  UNL1        0.0000
     13 C           2.7103   28.7875   10.1840 C.3     1  UNL1        0.0003
     14 C           4.0642   28.0702   10.1140 C.3     1  UNL1        0.0000
     15 C           1.8152   28.2593    9.0651 C.3     1  UNL1        0.0000
     16 C           5.2600   31.6145    3.9406 C.3     1  UNL1        0.2373
     17 C           6.6712   31.7631    4.5187 C.3     1  UNL1        0.1896
     18 O           7.5565   32.5431    3.6964 O.3     1  UNL1       -0.3436
     19 C           8.8342   32.8094    4.2725 C.3     1  UNL1        0.2030
     20 C           8.7603   32.7887    5.8159 C.3     1  UNL1        0.1420
     21 N          10.1154   32.5776    6.5469 N.4     1  UNL1        0.3114
     22 C          11.1682   32.1830    5.5123 C.3     1  UNL1        0.1712
     23 C          10.5984   33.8820    7.1866 C.3     1  UNL1        0.1712
     24 C          10.0204   31.5055    7.6614 C.3     1  UNL1        0.1366
     25 C           8.7838   31.5459    8.5291 C.ar    1  UNL1        0.0328
     26 C           7.6452   30.7945    8.2026 C.ar    1  UNL1        0.0014
     27 C           6.5062   30.8286    9.0084 C.ar    1  UNL1       -0.0001
     28 C           6.4859   31.6191   10.1517 C.ar    1  UNL1       -0.0000
     29 C           7.6009   32.3834   10.4855 C.ar    1  UNL1       -0.0001
     30 C           8.7390   32.3543    9.6768 C.ar    1  UNL1        0.0014
@<TRIPOS>UNITY_ATOM_ATTR
21 1
charge 1
@<TRIPOS>BOND
     1    12    13    1
     2    13    14    1
     3    13    15    1
     4    13    11    1
     5    11     8    1
     6     8     9    1
     7     8    10    1
     8     8     2    1
     9     2     3   ar
    10     2     7   ar
    11     3     4   ar
    12     4     5   ar
    13     5     1    1
    14     5     6   ar
    15     1    16    1
    16    16    17    1
    17    17    18    1
    18    18    19    1
    19    19    20    1
    20    20    21    1
    21    21    22    1
    22    21    23    1
    23    21    24    1
    24    24    25    1
    25    25    26   ar
    26    25    30   ar
    27    26    27   ar
    28    27    28   ar
    29    28    29   ar
    30    29    30   ar
    31     6     7   ar



#	Name:			CHEMBL221886
#	Creating user name:	trannguyen
#	Creation time:		Wed Dec  7 14:36:25 2022


#	Modifying user name:	trannguyen
#	Modification time:	Wed Dec  7 14:36:25 2022

@<TRIPOS>MOLECULE
CHEMBL221886
 43 45 0 0 0
SMALL
GASTEIGER

@<TRIPOS>ATOM
      1 C           1.9841   31.3138    5.2625 C.3     1  UNL1        0.1610
      2 C           3.0776   31.2374    4.1400 C.3     1  UNL1        0.1673
      3 O           2.3816   31.3206    2.8707 O.3     1  UNL1       -0.3795
      4 C           4.1634   32.3527    4.1320 C.3     1  UNL1        0.1620
      5 C           3.6468   33.5369    4.9247 C.3     1  UNL1        0.0824
      6 N           4.1128   34.7151    4.1928 N.3     1  UNL1       -0.3202
      7 C           2.1884   33.8512    4.9616 C.3     1  UNL1        0.0361
      8 C           1.3506   32.7180    5.4805 C.3     1  UNL1        0.0824
      9 N           0.0820   32.8950    4.7467 N.3     1  UNL1       -0.3202
     10 H           1.7268   32.0450    2.9365 H       1  UNL1        0.2105
     11 H           5.0825   34.5598    3.9270 H       1  UNL1        0.1189
     12 H           4.0278   35.5663    4.7429 H       1  UNL1        0.1189
     13 H          -0.6099   32.2256    5.0718 H       1  UNL1        0.1189
     14 H          -0.2915   33.8284    4.9314 H       1  UNL1        0.1189
     15 O           2.3473   30.7435    6.5402 O.3     1  UNL1       -0.3272
     16 C           3.5163   30.4830    9.3379 C.3     1  UNL1        0.1136
     17 C           2.9577   31.8107    8.7637 C.3     1  UNL1        0.1836
     18 O           4.0410   32.6382    8.3105 O.3     1  UNL1       -0.3783
     19 C           1.8962   31.5017    7.6830 C.3     1  UNL1        0.2646
     20 O           0.7884   30.8636    8.3296 O.3     1  UNL1       -0.3261
     21 C           1.0986   29.6834    9.0776 C.3     1  UNL1        0.1729
     22 C           2.3350   29.7459   10.0205 C.3     1  UNL1        0.1312
     23 C           2.6592   28.3156   10.4625 C.3     1  UNL1        0.0334
     24 O           1.9989   30.4790   11.2147 O.3     1  UNL1       -0.3829
     25 H           3.9466   33.5045    8.7418 H       1  UNL1        0.2106
     26 H           2.8607   30.7573   11.5929 H       1  UNL1        0.2104
     27 C           5.8382   30.0744   10.1641 C.3     1  UNL1        0.0860
     28 N           4.6434   30.8963   10.2276 N.3     1  UNL1       -0.2933
     29 H           4.8966   31.8361    9.8883 H       1  UNL1        0.1234
     30 O           5.4656   31.9387    4.6330 O.3     1  UNL1       -0.3181
     31 C           6.7030   32.3605    3.9513 C.3     1  UNL1        0.3022
     32 O           6.6136   32.4853    2.5066 O.2     1  UNL1       -0.4547
     33 C           7.8223   32.9138    1.9030 C.2     1  UNL1        0.1303
     34 C           8.8267   33.4357    2.5563 C.2     1  UNL1        0.0093
     35 C           8.8949   33.6540    4.0515 C.3     1  UNL1        0.0508
     36 C           7.4959   33.5646    4.6350 C.3     1  UNL1        0.1264
     37 N           7.1757   34.9987    4.4618 N.3     1  UNL1       -0.3169
     38 H           6.9748   35.1783    3.4739 H       1  UNL1        0.1190
     39 H           6.3681   35.2179    5.0199 H       1  UNL1        0.1190
     40 C           7.9283   32.6689    0.3967 C.3     1  UNL1        0.1298
     41 N           7.6262   31.3142   -0.0297 N.3     1  UNL1       -0.3149
     42 H           8.3070   30.6815    0.3921 H       1  UNL1        0.1192
     43 H           6.7126   31.0381    0.3224 H       1  UNL1        0.1192
@<TRIPOS>BOND
     1    27    28    1
     2    28    29    1
     3    16    17    1
     4    16    22    1
     5    16    28    1
     6    17    18    1
     7    17    19    1
     8    18    25    1
     9    19    20    1
    10    19    15    1
    11     1     2    1
    12     1     8    1
    13     1    15    1
    14     2     3    1
    15     2     4    1
    16     3    10    1
    17     4    30    1
    18     4     5    1
    19    30    31    1
    20    31    32    1
    21    31    36    1
    22    32    33    1
    23    33    40    1
    24    33    34    2
    25    40    41    1
    26    41    42    1
    27    41    43    1
    28    34    35    1
    29    35    36    1
    30    36    37    1
    31    37    38    1
    32    37    39    1
    33     5     7    1
    34     5     6    1
    35     6    11    1
    36     6    12    1
    37     7     8    1
    38     8     9    1
    39     9    13    1
    40     9    14    1
    41    20    21    1
    42    21    22    1
    43    22    23    1
    44    22    24    1
    45    24    26    1



#	Name:			CHEMBL2220442
#	Creating user name:	trannguyen
#	Creation time:		Wed Dec  7 14:36:24 2022


#	Modifying user name:	trannguyen
#	Modification time:	Wed Dec  7 14:36:24 2022

@<TRIPOS>MOLECULE
CHEMBL2220442
 33 35 0 0 0
SMALL
GASTEIGER

@<TRIPOS>ATOM
      1 N           3.9102   32.5609    5.4569 N.ar    1  UNL1       -0.3291
      2 C           4.0421   32.5660    6.8417 C.ar    1  UNL1        0.0596
      3 C           5.3966   32.4689    7.1488 C.ar    1  UNL1        0.0172
      4 C           6.1096   32.4467    5.9066 C.ar    1  UNL1        0.0172
      5 C           7.4807   32.3431    5.5687 C.ar    1  UNL1        0.0015
      6 C           7.8898   32.4207    4.2359 C.ar    1  UNL1        0.0001
      7 C           6.9527   32.5919    3.2306 C.ar    1  UNL1        0.0015
      8 C           5.5894   32.6486    3.5294 C.ar    1  UNL1        0.0172
      9 C           5.1725   32.5630    4.8726 C.ar    1  UNL1        0.0598
     10 C           5.9347   32.4403    8.5148 C.ar    1  UNL1        0.0016
     11 C           6.2732   31.2167    9.1155 C.ar    1  UNL1        0.0024
     12 C           6.7955   31.1758   10.4118 C.ar    1  UNL1        0.0296
     13 C           7.0087   32.3610   11.1026 C.ar    1  UNL1        0.1401
     14 F           7.5296   32.3227   12.3359 F       1  UNL1       -0.2042
     15 C           6.6889   33.5844   10.5312 C.ar    1  UNL1        0.0296
     16 C           6.1353   33.6218    9.2483 C.ar    1  UNL1        0.0024
     17 C           2.2689   33.9801    4.2095 C.3     1  UNL1        0.0245
     18 C           2.6326   32.5889    4.7288 C.3     1  UNL1        0.0856
     19 C           2.5336   31.5143    3.6420 C.3     1  UNL1        0.0245
     20 C           2.8884   32.6458    7.6667 C.2     1  UNL1        0.0150
     21 C           2.2854   31.5258    8.0944 C.2     1  UNL1        0.0041
     22 C           0.9879   31.5357    8.8452 C.3     1  UNL1        0.1350
     23 O           0.0751   32.3982    8.1783 O.3     1  UNL1       -0.3800
     24 H           0.1573   32.2555    7.2201 H       1  UNL1        0.2108
     25 C           0.3698   30.1444    8.9611 C.3     1  UNL1        0.0636
     26 C           0.7148   29.4271   10.2706 C.3     1  UNL1        0.1244
     27 O          -0.3073   28.4390   10.5164 O.3     1  UNL1       -0.3838
     28 H          -1.1600   28.9120   10.5820 H       1  UNL1        0.2104
     29 C           2.0652   28.7084   10.2576 C.3     1  UNL1        0.1385
     30 C           2.1469   27.6091   11.3001 C.2     1  UNL1        0.3163
     31 O           2.3083   26.4390   11.0208 O.2     1  UNL1       -0.2502
     32 O           1.9466   28.0190   12.5754 O.3     1  UNL1       -0.4801
     33 H           1.7385   28.9817   12.6189 H       1  UNL1        0.2951
@<TRIPOS>BOND
     1    17    18    1
     2    18    19    1
     3    18     1    1
     4     1     2   ar
     5     1     9   ar
     6     2    20    1
     7     2     3   ar
     8    20    21    2
     9    21    22    1
    10    22    23    1
    11    22    25    1
    12    23    24    1
    13    25    26    1
    14    26    27    1
    15    26    29    1
    16    27    28    1
    17    29    30    1
    18    30    31    2
    19    30    32    1
    20    32    33    1
    21     3    10    1
    22     3     4   ar
    23    10    11   ar
    24    10    16   ar
    25    11    12   ar
    26    12    13   ar
    27    13    14    1
    28    13    15   ar
    29    15    16   ar
    30     4     5   ar
    31     4     9   ar
    32     5     6   ar
    33     6     7   ar
    34     7     8   ar
    35     8     9   ar






#	Name:			CHEMBL2221249
#	Creating user name:	trannguyen
#	Creation time:		Wed Dec  7 14:36:25 2022


#	Modifying user name:	trannguyen
#	Modification time:	Wed Dec  7 14:36:25 2022

@<TRIPOS>MOLECULE
CHEMBL2221249
 104 104 0 0 0
SMALL
GASTEIGER

@<TRIPOS>ATOM
      1 C           8.7872   33.2819   -3.9402 C.3     1  UNL1        0.1503
      2 C           7.6200   33.4382   -4.8938 C.3     1  UNL1        0.0502
      3 C           7.1534   34.8769   -4.9941 C.3     1  UNL1        0.0917
      4 N           7.9278   36.0508   -5.2066 N.am    1  UNL1       -0.3029
      5 C           8.4384   36.3909   -6.3718 C.2     1  UNL1        0.2428
      6 O           9.4013   37.1179   -6.2652 O.2     1  UNL1       -0.2732
      7 C           7.6228   36.2311   -7.6493 C.3     1  UNL1        0.1757
      8 N           7.5121   37.6576   -7.9151 N.am    1  UNL1       -0.2951
      9 C           6.3249   38.3812   -7.8760 C.2     1  UNL1        0.2407
     10 O           5.3960   38.1139   -8.6321 O.2     1  UNL1       -0.2733
     11 C           6.2208   39.3458   -6.6540 C.3     1  UNL1        0.1500
     12 N           7.1070   40.5330   -6.6724 N.am    1  UNL1       -0.2970
     13 C           8.4680   40.3501   -6.7702 C.2     1  UNL1        0.2407
     14 O           8.8315   39.3144   -7.3058 O.2     1  UNL1       -0.2733
     15 C           9.4781   41.3267   -6.1859 C.3     1  UNL1        0.1500
     16 N           9.3196   41.2621   -4.7495 N.am    1  UNL1       -0.2970
     17 C           9.4445   42.3511   -3.8935 C.2     1  UNL1        0.2406
     18 O           9.7778   43.4820   -4.2298 O.2     1  UNL1       -0.2733
     19 C           8.8045   41.9479   -2.5535 C.3     1  UNL1        0.1486
     20 N           9.0932   40.4557   -2.4411 N.am    1  UNL1       -0.2970
     21 C          10.2759   39.9393   -1.8984 C.2     1  UNL1        0.2406
     22 O          10.1316   39.2477   -0.8874 O.2     1  UNL1       -0.2733
     23 C          11.6658   39.9506   -2.6874 C.3     1  UNL1        0.1486
     24 N          11.8515   38.5001   -3.0555 N.am    1  UNL1       -0.2970
     25 C          10.9121   37.6038   -3.6120 C.2     1  UNL1        0.2407
     26 O           9.7497   37.9788   -3.8165 O.2     1  UNL1       -0.2733
     27 C          11.4429   36.1042   -3.9579 C.3     1  UNL1        0.1500
     28 N          10.2425   35.2880   -4.1040 N.am    1  UNL1       -0.2970
     29 C          10.0152   34.0361   -4.5173 C.2     1  UNL1        0.2407
     30 O          10.5937   33.5921   -5.5090 O.2     1  UNL1       -0.2733
     31 H           8.3109   36.6189   -4.4274 H       1  UNL1        0.1495
     32 H           8.2494   38.0933   -7.3308 H       1  UNL1        0.1499
     33 H           6.9041   41.1121   -5.8825 H       1  UNL1        0.1499
     34 H           9.1082   40.3365   -4.3248 H       1  UNL1        0.1499
     35 H           8.2896   39.9445   -2.0509 H       1  UNL1        0.1499
     36 H          12.7908   38.1588   -3.0865 H       1  UNL1        0.1499
     37 H           9.4060   35.8297   -3.9003 H       1  UNL1        0.1499
     38 C           8.3440   35.3454   -8.6883 C.3     1  UNL1        0.1373
     39 C           8.9871   36.1330   -9.8266 C.3     1  UNL1        0.0340
     40 O           9.3350   34.5862   -7.9758 O.3     1  UNL1       -0.3823
     41 H           9.5783   35.1414   -7.1944 H       1  UNL1        0.2104
     42 C           7.7626   32.8584   -1.5904 C.2     1  UNL1        0.2371
     43 O           7.5024   31.6708   -1.7499 O.2     1  UNL1       -0.2737
     44 N           8.4569   33.6730   -2.5259 N.am    1  UNL1       -0.2972
     45 H           8.5792   34.6574   -2.3890 H       1  UNL1        0.1499
     46 C           7.3548   33.2198   -0.1817 C.3     1  UNL1        0.1329
     47 N           8.4968   32.6738    0.8919 N.3     1  UNL1       -0.2898
     48 H           8.8200   31.7927    0.4982 H       1  UNL1        0.1237
     49 C           8.1434   32.2934    2.3068 C.3     1  UNL1        0.0912
     50 C           8.1267   33.0535    3.5945 C.3     1  UNL1        0.1141
     51 C           9.0842   34.5474    3.3757 C.3     1  UNL1        0.1298
     52 C           8.6924   36.0575    3.3729 C.3     1  UNL1        0.0335
     53 O          10.4132   34.4843    3.9705 O.3     1  UNL1       -0.3827
     54 H          11.0063   34.9552    3.3422 H       1  UNL1        0.2104
     55 C           6.2843   33.1321    5.4587 C.2     1  UNL1        0.2404
     56 O           7.0852   33.8195    6.1093 O.2     1  UNL1       -0.2733
     57 N           6.7052   32.8847    4.1673 N.am    1  UNL1       -0.3010
     58 H           6.0491   32.2977    3.6974 H       1  UNL1        0.1495
     59 C           4.6660   32.8983    6.1298 C.3     1  UNL1        0.1499
     60 C           3.5816   33.7560    8.3821 C.2     1  UNL1        0.2228
     61 O           3.2093   34.9038    8.6798 O.2     1  UNL1       -0.2751
     62 N           3.9688   33.7135    7.1136 N.am    1  UNL1       -0.2983
     63 H           4.1208   34.6652    6.8395 H       1  UNL1        0.1498
     64 C           3.4266   32.7053    9.4564 C.3     1  UNL1        0.0851
     65 C           1.9981   32.5069    9.9800 C.3     1  UNL1        0.0096
     66 C           0.9526   31.8138    9.1041 C.3     1  UNL1        0.0005
     67 C           1.2642   30.4380    8.4856 C.3     1  UNL1        0.0000
     68 C           1.0992   29.1239    9.2453 C.3     1  UNL1        0.0000
     69 C          -0.2513   29.1762    9.9171 C.3     1  UNL1        0.0000
     70 C           1.6241   27.9893   11.6190 C.3     1  UNL1        0.0000
     71 C           2.0411   28.8030   10.3952 C.3     1  UNL1        0.0000
     72 C           3.5138   32.0806    5.3580 C.3     1  UNL1        0.0458
     73 C           2.7515   33.0674    4.0157 C.3     1  UNL1        0.0674
     74 N           1.9050   34.3082    4.4000 N.3     1  UNL1       -0.3211
     75 H           2.5161   34.7089    5.1903 H       1  UNL1        0.1189
     76 H           2.1555   35.0669    3.7400 H       1  UNL1        0.1189
     77 C           7.0398   34.8899    0.0452 C.3     1  UNL1        0.0419
     78 C           8.0564   36.2056   -0.1941 C.3     1  UNL1        0.0670
     79 N           8.0062   37.0769   -1.3972 N.3     1  UNL1       -0.3211
     80 H           8.9172   37.5272   -1.5434 H       1  UNL1        0.1189
     81 H           8.1134   36.5428   -2.2331 H       1  UNL1        0.1189
     82 C          10.9132   41.0223   -6.6949 C.3     1  UNL1        0.0458
     83 C          11.8677   42.1810   -6.9902 C.3     1  UNL1        0.0674
     84 N          11.4266   43.5259   -6.7345 N.3     1  UNL1       -0.3211
     85 H          10.7007   43.5654   -6.0249 H       1  UNL1        0.1189
     86 H          10.7138   43.7441   -7.5193 H       1  UNL1        0.1189
     87 C          12.2749   35.2972   -2.9990 C.3     1  UNL1        0.0458
     88 C          13.7475   35.1526   -3.0196 C.3     1  UNL1        0.0674
     89 N          13.8817   36.2099   -2.1427 N.3     1  UNL1       -0.3211
     90 H          14.6230   36.7787   -2.5462 H       1  UNL1        0.1189
     91 H          14.2337   35.7027   -1.2715 H       1  UNL1        0.1189
     92 C          13.0029   40.4440   -1.9368 C.3     1  UNL1        0.0290
     93 C          13.5595   41.9354   -2.1492 C.3     1  UNL1        0.0021
     94 C          13.1805   42.8388   -3.3456 C.3     1  UNL1        0.0001
     95 C          13.2052   42.7750   -0.9268 C.3     1  UNL1        0.0001
     96 C           9.0218   42.7986   -1.2338 C.3     1  UNL1        0.0290
     97 C           7.8308   43.0333   -0.2269 C.3     1  UNL1        0.0021
     98 C           6.8971   41.8200   -0.0218 C.3     1  UNL1        0.0001
     99 C           8.3019   43.3151    1.1845 C.3     1  UNL1        0.0001
    100 C           4.8040   39.8113   -6.3625 C.3     1  UNL1        0.0458
    101 C           4.4657   41.0627   -7.1346 C.3     1  UNL1        0.0674
    102 N           3.4224   40.7282   -8.0805 N.3     1  UNL1       -0.3211
    103 H           3.4550   41.4356   -8.8224 H       1  UNL1        0.1189
    104 H           2.4808   40.7832   -7.6937 H       1  UNL1        0.1189
@<TRIPOS>BOND
     1    70    71    1
     2    71    68    1
     3    68    69    1
     4    68    67    1
     5    67    66    1
     6    66    65    1
     7    65    64    1
     8    64    60    1
     9    60    61    2
    10    60    62   am
    11    62    59    1
    12    62    63    1
    13    59    72    1
    14    59    55    1
    15    72    73    1
    16    73    74    1
    17    74    75    1
    18    74    76    1
    19    55    56    2
    20    55    57   am
    21    57    50    1
    22    57    58    1
    23    50    49    1
    24    50    51    1
    25    49    47    1
    26    47    46    1
    27    47    48    1
    28    46    77    1
    29    46    42    1
    30    77    78    1
    31    78    79    1
    32    79    80    1
    33    79    81    1
    34    42    43    2
    35    42    44   am
    36    44    45    1
    37     1     2    1
    38     1    29    1
    39     1    44    1
    40     2     3    1
    41     3     4    1
    42     4     5   am
    43     4    31    1
    44     5     6    2
    45     5     7    1
    46     7     8    1
    47     7    38    1
    48    38    39    1
    49    38    40    1
    50    40    41    1
    51     8     9   am
    52     8    32    1
    53     9    10    2
    54     9    11    1
    55    11    12    1
    56    11   100    1
    57   100   101    1
    58   101   102    1
    59   102   103    1
    60   102   104    1
    61    12    13   am
    62    12    33    1
    63    13    14    2
    64    13    15    1
    65    15    16    1
    66    15    82    1
    67    82    83    1
    68    83    84    1
    69    84    85    1
    70    84    86    1
    71    16    17   am
    72    16    34    1
    73    17    18    2
    74    17    19    1
    75    19    20    1
    76    19    96    1
    77    96    97    1
    78    97    98    1
    79    97    99    1
    80    20    21   am
    81    20    35    1
    82    21    22    2
    83    21    23    1
    84    23    92    1
    85    23    24    1
    86    92    93    1
    87    93    94    1
    88    93    95    1
    89    24    25   am
    90    24    36    1
    91    25    26    2
    92    25    27    1
    93    27    28    1
    94    27    87    1
    95    87    88    1
    96    88    89    1
    97    89    90    1
    98    89    91    1
    99    28    29   am
   100    28    37    1
   101    29    30    2
   102    51    52    1
   103    51    53    1
   104    53    54    1



#	Name:			CHEMBL222863
#	Creating user name:	trannguyen
#	Creation time:		Wed Dec  7 14:36:25 2022


#	Modifying user name:	trannguyen
#	Modification time:	Wed Dec  7 14:36:25 2022

@<TRIPOS>MOLECULE
CHEMBL222863
 49 54 0 0 0
SMALL
GASTEIGER

@<TRIPOS>ATOM
      1 C          10.9614   32.7705    8.1626 C.3     1  UNL1        0.1226
      2 C          10.5636   31.8521    9.3129 C.3     1  UNL1        0.0591
      3 C           9.2226   31.1943    9.0506 C.3     1  UNL1        0.1174
      4 O           9.4260   30.3452    7.9123 O.3     1  UNL1       -0.3842
      5 C           8.0305   32.2138    8.8213 C.3     1  UNL1        0.0767
      6 C           6.7731   31.3211    8.3884 C.3     1  UNL1        0.0359
      7 C           5.9328   30.6403    9.4967 C.3     1  UNL1        0.1108
      8 O           6.7483   30.2088   10.5779 O.3     1  UNL1       -0.3845
      9 C           4.7767   31.4829   10.0169 C.3     1  UNL1        0.0318
     10 C           3.8559   32.0378    8.9165 C.3     1  UNL1        0.0285
     11 C           2.9072   33.0580    9.6101 C.3     1  UNL1        0.0027
     12 C           3.0441   30.9498    8.1499 C.3     1  UNL1        0.0244
     13 C           2.6008   31.6753    6.8600 C.3     1  UNL1        0.0066
     14 C           3.5849   32.8385    6.6499 C.3     1  UNL1        0.0272
     15 C           4.6604   32.6961    7.7446 C.3     1  UNL1        0.0886
     16 O           5.1087   33.9694    8.1766 O.3     1  UNL1       -0.3867
     17 C           5.8700   31.8399    7.2471 C.3     1  UNL1        0.0273
     18 C           6.6701   32.4364    6.0582 C.3     1  UNL1        0.0048
     19 C           8.1715   32.6564    6.2988 C.3     1  UNL1        0.0272
     20 C           8.4313   33.2428    7.6911 C.3     1  UNL1        0.0951
     21 O           7.5873   34.4184    7.7102 O.3     1  UNL1       -0.3865
     22 C           9.8673   33.7945    7.8576 C.3     1  UNL1        0.0568
     23 H           9.9400   29.5708    8.2046 H       1  UNL1        0.2103
     24 H           6.1678   29.8822   11.2882 H       1  UNL1        0.2103
     25 H           5.7801   34.3135    7.5463 H       1  UNL1        0.2102
     26 H           7.6575   34.8256    8.6018 H       1  UNL1        0.2102
     27 C           1.9692   30.2291    8.9122 C.2     1  UNL1        0.0053
     28 C           2.0846   29.2698    9.8298 C.2     1  UNL1        0.0769
     29 C           0.7337   28.9344   10.2818 C.2     1  UNL1        0.3412
     30 O           0.4675   28.0851   11.1040 O.2     1  UNL1       -0.2449
     31 O          -0.1613   29.7276    9.6321 O.3     1  UNL1       -0.4408
     32 C           0.5390   30.5914    8.7428 C.3     1  UNL1        0.2314
     33 C           7.8465   32.9861   10.1676 C.3     1  UNL1        0.1417
     34 O           6.9297   34.0697   10.1291 O.3     1  UNL1       -0.3818
     35 H           6.1789   33.8589    9.5335 H       1  UNL1        0.2104
     36 O          12.1482   33.5093    8.4898 O.3     1  UNL1       -0.3310
     37 C          14.9720   35.2966    5.9562 C.3     1  UNL1        0.0348
     38 C          13.8979   34.3171    6.4204 C.3     1  UNL1        0.1471
     39 O          14.3393   33.7716    7.6732 O.3     1  UNL1       -0.3286
     40 C          13.3911   32.8550    8.2488 C.3     1  UNL1        0.2655
     41 C          13.2905   31.6351    7.3166 C.3     1  UNL1        0.1964
     42 O          14.5736   30.9993    7.1453 O.3     1  UNL1       -0.3775
     43 C          12.7789   32.0975    5.9519 C.3     1  UNL1        0.1714
     44 O          12.7670   30.9949    5.0299 O.3     1  UNL1       -0.3794
     45 C          13.6632   33.2117    5.3766 C.3     1  UNL1        0.1668
     46 O          13.0454   33.7436    4.2011 O.3     1  UNL1       -0.3795
     47 H          15.2527   31.6942    7.2655 H       1  UNL1        0.2106
     48 H          13.5401   30.4425    5.2673 H       1  UNL1        0.2105
     49 H          12.6982   32.9719    3.7111 H       1  UNL1        0.2105
@<TRIPOS>BOND
     1    38    39    1
     2    38    45    1
     3    38    37    1
     4    39    40    1
     5    40    41    1
     6    40    36    1
     7     1     2    1
     8     1    22    1
     9     1    36    1
    10     2     3    1
    11     3     5    1
    12     3     4    1
    13     4    23    1
    14     5     6    1
    15     5    20    1
    16     5    33    1
    17    33    34    1
    18    34    35    1
    19     6     7    1
    20     6    17    1
    21     7     9    1
    22     7     8    1
    23     8    24    1
    24     9    10    1
    25    10    12    1
    26    10    15    1
    27    10    11    1
    28    12    13    1
    29    12    27    1
    30    27    28    2
    31    27    32    1
    32    28    29    1
    33    29    30    2
    34    29    31    1
    35    31    32    1
    36    13    14    1
    37    14    15    1
    38    15    17    1
    39    15    16    1
    40    16    25    1
    41    17    18    1
    42    18    19    1
    43    19    20    1
    44    20    22    1
    45    20    21    1
    46    21    26    1
    47    41    42    1
    48    41    43    1
    49    42    47    1
    50    43    44    1
    51    43    45    1
    52    44    48    1
    53    45    46    1
    54    46    49    1



#	Name:			CHEMBL2252949
#	Creating user name:	trannguyen
#	Creation time:		Wed Dec  7 14:36:25 2022


#	Modifying user name:	trannguyen
#	Modification time:	Wed Dec  7 14:36:25 2022

@<TRIPOS>MOLECULE
CHEMBL2252949
 11 12 0 0 0
SMALL
GASTEIGER

@<TRIPOS>ATOM
      1 C           5.0168   32.2021    6.6217 C.3     1  UNL1        0.0004
      2 C           3.7189   32.8313    6.0778 C.3     1  UNL1        0.0066
      3 C           3.2142   33.8001    7.1666 C.3     1  UNL1        0.0004
      4 C           3.8647   33.4676    4.6670 C.3     1  UNL1        0.0077
      5 C           4.2002   32.2500    3.7681 C.3     1  UNL1        0.0009
      6 C           3.3557   31.1126    4.3855 C.3     1  UNL1        0.0069
      7 C           2.6620   31.8071    5.5805 C.3     1  UNL1        0.0515
      8 C           2.0528   30.8716    6.5974 C.3     1  UNL1        0.0073
      9 C           1.6678   32.7575    4.9077 C.2     1  UNL1        0.1498
     10 O           0.4576   32.6010    4.8374 O.2     1  UNL1       -0.2961
     11 C           2.4284   33.9190    4.3000 C.3     1  UNL1        0.0645
@<TRIPOS>BOND
     1     1     2    1
     2     2     3    1
     3     2     4    1
     4     2     7    1
     5     4     5    1
     6     4    11    1
     7     5     6    1
     8     6     7    1
     9     7     8    1
    10     7     9    1
    11     9    10    2
    12     9    11    1



#	Name:			CHEMBL227934
#	Creating user name:	trannguyen
#	Creation time:		Wed Dec  7 14:36:25 2022


#	Modifying user name:	trannguyen
#	Modification time:	Wed Dec  7 14:36:25 2022

@<TRIPOS>MOLECULE
CHEMBL227934
 25 31 0 0 0
SMALL
GASTEIGER

@<TRIPOS>ATOM
      1 O           5.9827   32.3691   10.0885 O.2     1  UNL1       -0.2744
      2 C           6.0622   32.5972    8.8797 C.2     1  UNL1        0.2318
      3 C           7.4248   32.9341    8.2713 C.3     1  UNL1        0.1151
      4 C           7.5781   32.8895    6.7330 C.3     1  UNL1        0.1266
      5 O           7.8025   34.2423    6.3113 O.3     1  UNL1       -0.3509
      6 C           8.2118   34.3800    4.9560 C.3     1  UNL1        0.1677
      7 C           6.9879   34.5281    4.1132 C.2     1  UNL1       -0.0015
      8 C           6.1025   33.5341    3.9058 C.2     1  UNL1       -0.0303
      9 C           4.8313   33.7581    3.1097 C.3     1  UNL1        0.0946
     10 N           3.6329   33.0191    3.5335 N.3     1  UNL1       -0.2702
     11 C           2.5982   33.8367    4.1629 C.3     1  UNL1        0.0728
     12 C           2.9487   33.8776    5.6400 C.3     1  UNL1        0.0243
     13 C           3.7648   32.5829    5.8981 C.3     1  UNL1        0.0520
     14 C           3.0884   31.7653    6.9765 C.ar    1  UNL1       -0.0062
     15 C           1.8871   31.0699    6.9064 C.ar    1  UNL1       -0.0030
     16 C           1.4097   30.4365    8.0556 C.ar    1  UNL1       -0.0002
     17 C           2.1248   30.5086    9.2591 C.ar    1  UNL1        0.0013
     18 C           3.3331   31.2046    9.3268 C.ar    1  UNL1        0.0146
     19 C           3.8022   31.8236    8.1824 C.ar    1  UNL1        0.0498
     20 N           5.0049   32.5168    7.9982 N.am    1  UNL1       -0.2601
     21 C           5.1193   32.9216    6.6003 C.3     1  UNL1        0.0873
     22 C           6.3652   32.2209    6.0608 C.3     1  UNL1        0.0504
     23 C           6.3285   32.1681    4.5273 C.3     1  UNL1        0.0247
     24 C           5.1800   31.2275    4.1679 C.3     1  UNL1        0.0205
     25 C           3.8668   31.9220    4.4931 C.3     1  UNL1        0.0634
@<TRIPOS>BOND
     1     1     2    2
     2     2     3    1
     3     2    20   am
     4     3     4    1
     5     4     5    1
     6     4    22    1
     7     5     6    1
     8     6     7    1
     9     7     8    2
    10     8     9    1
    11     8    23    1
    12     9    10    1
    13    10    11    1
    14    10    25    1
    15    11    12    1
    16    13    12    1
    17    13    14    1
    18    13    21    1
    19    13    25    1
    20    14    15   ar
    21    14    19   ar
    22    15    16   ar
    23    16    17   ar
    24    17    18   ar
    25    18    19   ar
    26    19    20    1
    27    20    21    1
    28    21    22    1
    29    22    23    1
    30    23    24    1
    31    24    25    1



#	Name:			CHEMBL2347005
#	Creating user name:	trannguyen
#	Creation time:		Wed Dec  7 14:36:25 2022


#	Modifying user name:	trannguyen
#	Modification time:	Wed Dec  7 14:36:25 2022

@<TRIPOS>MOLECULE
CHEMBL2347005
 46 48 0 0 0
SMALL
GASTEIGER

@<TRIPOS>ATOM
      1 C          10.7163   31.8361    9.1581 C.3     1  UNL1        0.0000
      2 C           9.3806   32.0144    8.4278 C.3     1  UNL1        0.0000
      3 C           8.3687   30.9467    8.7734 C.2     1  UNL1        0.0000
      4 C           7.0505   31.1649    8.5910 C.2     1  UNL1        0.0000
      5 C           6.1077   30.3773    9.3329 C.2     1  UNL1        0.0000
      6 C           4.8585   30.7995    9.5231 C.2     1  UNL1        0.0000
      7 C           4.2285   31.9973    8.8666 C.3     1  UNL1        0.0000
      8 C           2.8353   31.5204    8.5069 C.3     1  UNL1        0.0000
      9 C           5.0239   32.6606    7.6958 C.3     1  UNL1        0.0000
     10 C           6.5919   32.4672    7.9552 C.3     1  UNL1        0.0000
     11 C           7.3146   33.5510    8.8420 C.3     1  UNL1        0.0000
     12 C           8.8470   33.4532    8.6728 C.3     1  UNL1        0.0000
     13 C           4.5059   32.2975    6.1881 C.3     1  UNL1        0.0000
     14 C           4.9953   33.2331    4.9988 C.3     1  UNL1        0.0000
     15 C           6.3485   32.9968    4.2499 C.3     1  UNL1        0.0000
     16 C           7.2102   34.2478    4.0341 C.3     1  UNL1        0.0000
     17 C           8.4935   33.9733    3.2182 C.3     1  UNL1        0.0000
     18 C           8.1944   32.9663    2.0959 C.3     1  UNL1        0.0000
     19 C           7.1644   31.8954    2.3260 C.2     1  UNL1        0.0000
     20 O           7.1842   30.8379    1.7018 O.2     1  UNL1        0.0000
     21 O           6.0870   32.2737    3.0492 O.3     1  UNL1        0.0000
     22 O           9.6056   33.7203    4.1347 O.3     1  UNL1        0.0000
     23 SI         10.6795   34.9444    4.6460 Si      1  UNL1        0.0000
     24 C          11.7369   34.0997    5.9557 C.3     1  UNL1        0.0000
     25 C          11.8829   35.5453    3.3282 C.3     1  UNL1        0.0000
     26 C           9.8150   36.6800    5.5398 C.3     1  UNL1        0.0000
     27 C           8.7778   36.3401    6.6480 C.3     1  UNL1        0.0000
     28 C          10.9190   37.5472    6.1891 C.3     1  UNL1        0.0000
     29 C           9.0506   37.4723    4.4593 C.3     1  UNL1        0.0000
     30 O           6.8925   33.6739   10.2320 O.3     1  UNL1        0.0000
     31 C           6.0087   34.6318   10.7155 C.2     1  UNL1        0.0000
     32 O           4.9612   34.4877   11.2773 O.2     1  UNL1        0.0000
     33 N           6.5563   35.8796   10.4245 N.am    1  UNL1        0.0000
     34 H           5.8837   36.5789   10.1332 H       1  UNL1        0.0000
     35 C           7.8733   36.2836   10.8948 C.3     1  UNL1        0.0000
     36 C           8.4312   37.5448   10.1843 C.3     1  UNL1        0.0000
     37 C           9.9703   37.5594   10.0717 C.3     1  UNL1        0.0000
     38 C          10.6933   36.2375   10.4308 C.3     1  UNL1        0.0000
     39 C          11.5839   35.6538    9.3214 C.3     1  UNL1        0.0000
     40 C          12.9861   36.2819    9.2041 C.3     1  UNL1        0.0000
     41 C          14.1061   35.2625    9.0464 C.2     1  UNL1        0.0000
     42 O          15.2379   35.5780    8.6891 O.2     1  UNL1        0.0000
     43 N          13.7238   33.9604    9.3032 N.am    1  UNL1        0.0000
     44 O          14.7856   33.0242    9.3185 O.3     1  UNL1        0.0000
     45 H          12.9836   33.7679    9.9704 H       1  UNL1        0.0000
     46 H          14.9185   32.8551    8.3656 H       1  UNL1        0.0000
@<TRIPOS>BOND
     1     1     2    1
     2     2     3    1
     3     2    12    1
     4     3     4    2
     5     4     5    1
     6     4    10    1
     7     5     6    2
     8     6     7    1
     9     7     8    1
    10     7     9    1
    11     9    13    1
    12     9    10    1
    13    13    14    1
    14    15    16    1
    15    15    21    1
    16    15    14    1
    17    16    17    1
    18    17    18    1
    19    17    22    1
    20    22    23    1
    21    23    24    1
    22    23    25    1
    23    23    26    1
    24    26    27    1
    25    26    28    1
    26    26    29    1
    27    18    19    1
    28    19    20    2
    29    19    21    1
    30    10    11    1
    31    11    12    1
    32    11    30    1
    33    30    31    1
    34    31    32    2
    35    31    33   am
    36    33    35    1
    37    33    34    1
    38    35    36    1
    39    36    37    1
    40    37    38    1
    41    38    39    1
    42    39    40    1
    43    40    41    1
    44    41    42    2
    45    41    43   am
    46    43    44    1
    47    43    45    1
    48    44    46    1



#	Name:			CHEMBL234926
#	Creating user name:	trannguyen
#	Creation time:		Wed Dec  7 14:36:25 2022


#	Modifying user name:	trannguyen
#	Modification time:	Wed Dec  7 14:36:25 2022

@<TRIPOS>MOLECULE
CHEMBL234926
 5 4 0 0 0
SMALL
GASTEIGER

@<TRIPOS>ATOM
      1 C           2.3018   27.6641   10.8427 C.3     1  UNL1        0.1634
      2 O           2.2118   26.5171   11.6713 O.3     1  UNL1       -0.3772
      3 H           2.3660   25.7468   11.0981 H       1  UNL1        0.2109
      4 C           4.4965   28.6204   10.0911 C.2     1  UNL1       -0.0024
      5 C           3.6073   27.6192   10.1205 C.2     1  UNL1        0.0053
@<TRIPOS>BOND
     1     4     5    2
     2     5     1    1
     3     1     2    1
     4     2     3    1



#	Name:			CHEMBL2367470
#	Creating user name:	trannguyen
#	Creation time:		Wed Dec  7 14:36:25 2022


#	Modifying user name:	trannguyen
#	Modification time:	Wed Dec  7 14:36:25 2022

@<TRIPOS>MOLECULE
CHEMBL2367470
 35 37 0 0 0
SMALL
GASTEIGER

@<TRIPOS>ATOM
      1 C           3.8794   32.0097    6.4419 C.ar    1  UNL1        0.0409
      2 C           3.7580   32.2948    5.0342 C.ar    1  UNL1        0.1739
      3 N           4.8440   32.9406    4.6112 N.ar    1  UNL1       -0.1598
      4 N           5.7373   32.9339    5.6313 N.ar    1  UNL1       -0.2123
      5 C           5.1654   32.4675    6.8347 C.ar    1  UNL1        0.0858
      6 C           5.8391   32.5458    8.1700 C.ar    1  UNL1        0.0179
      7 C           6.7564   31.5573    8.6007 C.ar    1  UNL1        0.0038
      8 C           7.3189   31.5652    9.8858 C.ar    1  UNL1        0.0297
      9 C           7.0848   32.6386   10.7247 C.ar    1  UNL1        0.1401
     10 F           7.6463   32.6688   11.9407 F       1  UNL1       -0.2042
     11 C           6.2558   33.6733   10.3152 C.ar    1  UNL1        0.0297
     12 C           5.5988   33.5987    9.0722 C.ar    1  UNL1        0.0038
     13 C           7.0761   33.3691    5.3188 C.ar    1  UNL1        0.1637
     14 C           8.0676   32.3864    5.1801 C.ar    1  UNL1        0.0388
     15 C           9.3839   32.7709    4.9358 C.ar    1  UNL1        0.0047
     16 C           9.6826   34.1199    4.8217 C.ar    1  UNL1        0.0208
     17 C           8.6462   35.0309    4.9533 C.ar    1  UNL1        0.1006
     18 N           7.3580   34.6903    5.1979 N.ar    1  UNL1       -0.2250
     19 C           2.6600   32.0289    4.0081 C.3     1  UNL1        0.4365
     20 F           1.3797   32.1167    4.4369 F       1  UNL1       -0.1643
     21 F           2.7401   32.9078    2.9667 F       1  UNL1       -0.1643
     22 F           2.7829   30.7829    3.4641 F       1  UNL1       -0.1643
     23 C           2.2051   32.1690    8.2416 C.2     1  UNL1        0.0027
     24 C           2.8423   31.4735    7.2947 C.2     1  UNL1        0.0008
     25 C           1.2453   31.6736    9.2824 C.3     1  UNL1        0.1349
     26 O           0.0136   32.3969    9.1459 O.3     1  UNL1       -0.3800
     27 H           0.1816   33.3102    9.4302 H       1  UNL1        0.2108
     28 C           0.9304   30.1854    9.0306 C.3     1  UNL1        0.0634
     29 C           1.0871   29.3004   10.2716 C.3     1  UNL1        0.1188
     30 O           0.2287   28.1669   10.0935 O.3     1  UNL1       -0.3840
     31 H           0.3240   27.6497   10.9223 H       1  UNL1        0.2104
     32 C           2.5156   28.8109   10.4375 C.3     1  UNL1        0.0710
     33 O           2.9741   26.5659    9.7045 O.co2   1  UNL1       -0.5491
     34 C           2.6072   27.3300   10.6248 C.2     1  UNL1        0.0528
     35 O           2.1969   26.8487   11.7428 O.co2   1  UNL1       -0.5491
@<TRIPOS>UNITY_ATOM_ATTR
33 1
charge -1
@<TRIPOS>BOND
     1    33    34   ar
     2    34    35   ar
     3    34    32    1
     4    29    30    1
     5    29    28    1
     6    29    32    1
     7    30    31    1
     8    25    26    1
     9    25    23    1
    10    25    28    1
    11    26    27    1
    12    23    24    2
    13    24     1    1
    14     1     2   ar
    15     1     5   ar
    16     2    19    1
    17     2     3   ar
    18    19    20    1
    19    19    21    1
    20    19    22    1
    21     3     4   ar
    22     4    13    1
    23     4     5   ar
    24    13    14   ar
    25    13    18   ar
    26    14    15   ar
    27    15    16   ar
    28    16    17   ar
    29    17    18   ar
    30     5     6    1
    31     6     7   ar
    32     6    12   ar
    33     7     8   ar
    34     8     9   ar
    35     9    10    1
    36     9    11   ar
    37    11    12   ar






#	Name:			CHEMBL2368190
#	Creating user name:	trannguyen
#	Creation time:		Wed Dec  7 14:36:25 2022


#	Modifying user name:	trannguyen
#	Modification time:	Wed Dec  7 14:36:25 2022

@<TRIPOS>MOLECULE
CHEMBL2368190
 30 32 0 0 0
SMALL
GASTEIGER

@<TRIPOS>ATOM
      1 C           3.0280   31.3077    8.3838 C.ar    1  UNL1        0.1383
      2 N           4.3003   31.5512    8.7429 N.ar    1  UNL1       -0.2307
      3 C           5.1429   32.0649    7.8095 C.ar    1  UNL1        0.0837
      4 C           4.7118   32.3162    6.4979 C.ar    1  UNL1        0.0311
      5 C           3.3696   32.0337    6.2211 C.ar    1  UNL1        0.0613
      6 N           2.5286   31.5455    7.1621 N.ar    1  UNL1       -0.2350
      7 C           6.5314   32.2800    8.3224 C.ar    1  UNL1        0.0179
      8 C           6.9208   33.5373    8.8385 C.ar    1  UNL1        0.0038
      9 C           8.2116   33.7656    9.3340 C.ar    1  UNL1        0.0297
     10 C           9.1359   32.7327    9.3355 C.ar    1  UNL1        0.1401
     11 F          10.3670   32.9396    9.8205 F       1  UNL1       -0.2042
     12 C           8.8027   31.4892    8.8254 C.ar    1  UNL1        0.0297
     13 C           7.5229   31.2782    8.3000 C.ar    1  UNL1        0.0038
     14 C           0.8047   30.2068    8.7318 C.3     1  UNL1        0.0080
     15 C           2.0967   30.6808    9.3979 C.3     1  UNL1        0.0586
     16 C           2.7832   29.5388   10.1429 C.3     1  UNL1        0.0080
     17 C           2.7650   32.1998    4.8310 C.3     1  UNL1        0.0404
     18 C           2.9600   30.9194    4.0140 C.3     1  UNL1        0.0063
     19 C           1.2855   32.5809    4.8979 C.3     1  UNL1        0.0063
     20 C           5.5974   32.7918    5.4305 C.2     1  UNL1        0.0016
     21 C           6.3350   31.9511    4.6886 C.2     1  UNL1        0.0168
     22 C           7.2385   32.3500    3.5495 C.3     1  UNL1        0.1933
     23 C           7.0408   33.8232    3.2326 C.3     1  UNL1        0.0781
     24 C           7.9325   34.1824    2.0633 C.3     1  UNL1        0.1256
     25 O           9.2947   34.0255    2.4538 O.3     1  UNL1       -0.3837
     26 C           7.6153   33.3102    0.8688 C.3     1  UNL1        0.1388
     27 C           7.4789   31.8442    1.1912 C.2     1  UNL1        0.3197
     28 O           7.6516   30.9914    0.3326 O.2     1  UNL1       -0.2500
     29 O           6.9750   31.5214    2.4043 O.3     1  UNL1       -0.4475
     30 H           9.8627   34.1955    1.6806 H       1  UNL1        0.2104
@<TRIPOS>BOND
     1    14    15    1
     2    15    16    1
     3    15     1    1
     4     1     2   ar
     5     1     6   ar
     6     2     3   ar
     7     3     7    1
     8     3     4   ar
     9     7     8   ar
    10     7    13   ar
    11     8     9   ar
    12     9    10   ar
    13    10    11    1
    14    10    12   ar
    15    12    13   ar
    16     4    20    1
    17     4     5   ar
    18    20    21    2
    19    22    23    1
    20    22    29    1
    21    22    21    1
    22    23    24    1
    23    24    26    1
    24    24    25    1
    25    25    30    1
    26    26    27    1
    27    27    28    2
    28    27    29    1
    29     5    17    1
    30     5     6   ar
    31    17    18    1
    32    17    19    1






#	Name:			CHEMBL2368191
#	Creating user name:	trannguyen
#	Creation time:		Wed Dec  7 14:36:25 2022


#	Modifying user name:	trannguyen
#	Modification time:	Wed Dec  7 14:36:25 2022

@<TRIPOS>MOLECULE
CHEMBL2368191
 33 36 0 0 0
SMALL
GASTEIGER

@<TRIPOS>ATOM
      1 C           4.0100   32.6271    5.6937 C.ar    1  UNL1        0.0582
      2 N           3.1750   32.5103    6.7599 N.ar    1  UNL1       -0.2540
      3 C           3.6877   32.2540    7.9726 C.ar    1  UNL1        0.0582
      4 C           5.0589   32.1532    8.1710 C.ar    1  UNL1        0.0147
      5 C           5.9605   32.2093    7.0870 C.ar    1  UNL1        0.0023
      6 C           5.4158   32.4425    5.7977 C.ar    1  UNL1        0.0134
      7 C           7.4047   32.0136    7.4134 C.ar    1  UNL1        0.0002
      8 C           8.0046   30.7428    7.4709 C.ar    1  UNL1        0.0023
      9 C           9.3949   30.6023    7.6006 C.ar    1  UNL1        0.0296
     10 C          10.2027   31.7304    7.6655 C.ar    1  UNL1        0.1401
     11 F          11.5337   31.5943    7.7338 F       1  UNL1       -0.2042
     12 C           9.6465   32.9985    7.6400 C.ar    1  UNL1        0.0296
     13 C           8.2590   33.1352    7.5333 C.ar    1  UNL1        0.0023
     14 C           2.7245   32.0761    9.1334 C.3     1  UNL1        0.0403
     15 C           1.2890   31.8381    8.6504 C.3     1  UNL1        0.0059
     16 C           1.0423   30.4065    8.1824 C.3     1  UNL1        0.0004
     17 C           1.3803   29.3993    9.2737 C.3     1  UNL1        0.0000
     18 C           2.8055   29.5567    9.7902 C.3     1  UNL1        0.0004
     19 C           3.1673   31.0009   10.1490 C.3     1  UNL1        0.0059
     20 C           2.7023   31.6045    3.8054 C.3     1  UNL1        0.0063
     21 C           3.2758   32.8989    4.3866 C.3     1  UNL1        0.0403
     22 C           2.1573   33.9515    4.5280 C.3     1  UNL1        0.0063
     23 C           6.2783   32.3590    4.6005 C.2     1  UNL1        0.0001
     24 C           6.9465   33.3893    4.0520 C.2     1  UNL1        0.0168
     25 C           7.7453   33.3155    2.7692 C.3     1  UNL1        0.1933
     26 C           7.6585   34.6427    2.0246 C.3     1  UNL1        0.0781
     27 C           8.4036   34.5193    0.7108 C.3     1  UNL1        0.1256
     28 O           9.7899   34.3187    0.9730 O.3     1  UNL1       -0.3837
     29 C           7.8426   33.3788   -0.1090 C.3     1  UNL1        0.1388
     30 C           7.6158   32.1065    0.6688 C.2     1  UNL1        0.3197
     31 O           7.5918   31.0239    0.1065 O.2     1  UNL1       -0.2500
     32 O           7.2539   32.2287    1.9672 O.3     1  UNL1       -0.4475
     33 H          10.2566   34.2402    0.1208 H       1  UNL1        0.2104
@<TRIPOS>BOND
     1    20    21    1
     2    21    22    1
     3    21     1    1
     4     1     2   ar
     5     1     6   ar
     6     2     3   ar
     7     3    14    1
     8     3     4   ar
     9    14    15    1
    10    14    19    1
    11    15    16    1
    12    16    17    1
    13    17    18    1
    14    18    19    1
    15     4     5   ar
    16     5     7    1
    17     5     6   ar
    18     7     8   ar
    19     7    13   ar
    20     8     9   ar
    21     9    10   ar
    22    10    11    1
    23    10    12   ar
    24    12    13   ar
    25     6    23    1
    26    23    24    2
    27    25    26    1
    28    25    32    1
    29    25    24    1
    30    26    27    1
    31    27    29    1
    32    27    28    1
    33    28    33    1
    34    29    30    1
    35    30    31    2
    36    30    32    1






#	Name:			CHEMBL2368198
#	Creating user name:	trannguyen
#	Creation time:		Wed Dec  7 14:36:25 2022


#	Modifying user name:	trannguyen
#	Modification time:	Wed Dec  7 14:36:25 2022

@<TRIPOS>MOLECULE
CHEMBL2368198
 28 30 0 0 0
SMALL
GASTEIGER

@<TRIPOS>ATOM
      1 C           9.7016   34.0148    5.6303 C.3     1  UNL1        0.0521
      2 C           8.3840   33.6432    6.2418 C.ar    1  UNL1        0.0590
      3 C           7.2789   33.3583    5.4442 C.ar    1  UNL1        0.0147
      4 C           6.0346   33.0175    6.0148 C.ar    1  UNL1        0.0023
      5 C           5.9840   33.0195    7.4380 C.ar    1  UNL1        0.0134
      6 C           7.1453   33.3443    8.1824 C.ar    1  UNL1        0.0582
      7 N           8.3253   33.6479    7.5866 N.ar    1  UNL1       -0.2540
      8 C           4.8815   32.6931    5.0963 C.ar    1  UNL1        0.0002
      9 C           4.0104   33.6717    4.5748 C.ar    1  UNL1        0.0023
     10 C           2.9463   33.3521    3.7182 C.ar    1  UNL1        0.0296
     11 C           2.7450   32.0381    3.3350 C.ar    1  UNL1        0.1401
     12 F           1.7387   31.7338    2.5051 F       1  UNL1       -0.2042
     13 C           3.5822   31.0394    3.8010 C.ar    1  UNL1        0.0296
     14 C           4.6311   31.3645    4.6752 C.ar    1  UNL1        0.0023
     15 C           7.1565   33.4137    9.7094 C.3     1  UNL1        0.0403
     16 C           7.9161   32.2383   10.3311 C.3     1  UNL1        0.0063
     17 C           7.7509   34.7409   10.1884 C.3     1  UNL1        0.0063
     18 C           4.7609   32.7086    8.1825 C.2     1  UNL1        0.0001
     19 C           4.5045   31.4995    8.7059 C.2     1  UNL1        0.0168
     20 C           3.2687   31.1856    9.5093 C.3     1  UNL1        0.1933
     21 C           3.1577   29.6840    9.7321 C.3     1  UNL1        0.0781
     22 C           1.8021   29.3715   10.3276 C.3     1  UNL1        0.1256
     23 O           1.6866   29.9981   11.6006 O.3     1  UNL1       -0.3837
     24 C           0.7153   29.8443    9.3894 C.3     1  UNL1        0.1388
     25 C           0.8788   31.2745    8.9584 C.2     1  UNL1        0.3197
     26 O          -0.0872   31.9373    8.6015 O.2     1  UNL1       -0.2500
     27 O           2.1339   31.7466    8.8173 O.3     1  UNL1       -0.4475
     28 H           0.7797   29.8674   11.9318 H       1  UNL1        0.2104
@<TRIPOS>BOND
     1     1     2    1
     2     2     3   ar
     3     2     7   ar
     4     3     4   ar
     5     4     8    1
     6     4     5   ar
     7     8     9   ar
     8     8    14   ar
     9     9    10   ar
    10    10    11   ar
    11    11    12    1
    12    11    13   ar
    13    13    14   ar
    14     5    18    1
    15     5     6   ar
    16    18    19    2
    17    20    21    1
    18    20    27    1
    19    20    19    1
    20    21    22    1
    21    22    24    1
    22    22    23    1
    23    23    28    1
    24    24    25    1
    25    25    26    2
    26    25    27    1
    27     6    15    1
    28     6     7   ar
    29    15    16    1
    30    15    17    1






#	Name:			CHEMBL2368199
#	Creating user name:	trannguyen
#	Creation time:		Wed Dec  7 14:36:25 2022


#	Modifying user name:	trannguyen
#	Modification time:	Wed Dec  7 14:36:25 2022

@<TRIPOS>MOLECULE
CHEMBL2368199
 33 36 0 0 0
SMALL
GASTEIGER

@<TRIPOS>ATOM
      1 C           3.5372   31.8906    6.3159 C.ar    1  UNL1        0.0585
      2 N           2.6790   31.2010    7.1055 N.ar    1  UNL1       -0.2497
      3 C           3.0414   30.8895    8.3647 C.ar    1  UNL1        0.0809
      4 C           4.2877   31.2586    8.8670 C.ar    1  UNL1        0.0191
      5 C           5.2443   31.9268    8.0691 C.ar    1  UNL1        0.0026
      6 C           4.8354   32.2539    6.7452 C.ar    1  UNL1        0.0134
      7 C           6.6007   32.2185    8.6612 C.ar    1  UNL1        0.0002
      8 C           6.8555   33.4228    9.3625 C.ar    1  UNL1        0.0023
      9 C           8.1051   33.7068    9.9341 C.ar    1  UNL1        0.0296
     10 C           9.1232   32.7731    9.8503 C.ar    1  UNL1        0.1401
     11 F          10.3060   33.0209   10.4270 F       1  UNL1       -0.2042
     12 C           8.9262   31.5855    9.1695 C.ar    1  UNL1        0.0296
     13 C           7.6918   31.3332    8.5562 C.ar    1  UNL1        0.0023
     14 C           2.0287   30.1473    9.1464 C.ar    1  UNL1        0.0176
     15 C           2.3748   29.3017   10.2162 C.ar    1  UNL1        0.0015
     16 C           1.3998   28.6052   10.9391 C.ar    1  UNL1        0.0000
     17 C           0.0551   28.7335   10.6037 C.ar    1  UNL1        0.0000
     18 C          -0.3158   29.5525    9.5426 C.ar    1  UNL1        0.0000
     19 C           0.6608   30.2471    8.8231 C.ar    1  UNL1        0.0015
     20 C           3.1849   31.0039    3.9854 C.3     1  UNL1        0.0063
     21 C           3.0045   32.2041    4.9190 C.3     1  UNL1        0.0403
     22 C           1.5223   32.6099    4.9476 C.3     1  UNL1        0.0063
     23 C           5.7106   32.9453    5.7871 C.2     1  UNL1        0.0001
     24 C           6.5517   32.2896    4.9718 C.2     1  UNL1        0.0168
     25 C           7.4206   32.9414    3.9251 C.3     1  UNL1        0.1933
     26 C           6.7182   34.1452    3.3159 C.3     1  UNL1        0.0781
     27 C           7.5916   34.7152    2.2171 C.3     1  UNL1        0.1256
     28 O           8.7973   35.2201    2.7862 O.3     1  UNL1       -0.3837
     29 C           7.8959   33.6579    1.1802 C.3     1  UNL1        0.1388
     30 C           8.3199   32.3320    1.7557 C.2     1  UNL1        0.3197
     31 O           8.9975   31.5489    1.1046 O.2     1  UNL1       -0.2500
     32 O           7.7679   31.9615    2.9323 O.3     1  UNL1       -0.4475
     33 H           9.3227   35.6323    2.0761 H       1  UNL1        0.2104
@<TRIPOS>BOND
     1    20    21    1
     2    21    22    1
     3    21     1    1
     4     1     2   ar
     5     1     6   ar
     6     2     3   ar
     7     3    14    1
     8     3     4   ar
     9    14    15   ar
    10    14    19   ar
    11    15    16   ar
    12    16    17   ar
    13    17    18   ar
    14    18    19   ar
    15     4     5   ar
    16     5     7    1
    17     5     6   ar
    18     7     8   ar
    19     7    13   ar
    20     8     9   ar
    21     9    10   ar
    22    10    11    1
    23    10    12   ar
    24    12    13   ar
    25     6    23    1
    26    23    24    2
    27    25    26    1
    28    25    32    1
    29    25    24    1
    30    26    27    1
    31    27    29    1
    32    27    28    1
    33    28    33    1
    34    29    30    1
    35    30    31    2
    36    30    32    1






#	Name:			CHEMBL2368200
#	Creating user name:	trannguyen
#	Creation time:		Wed Dec  7 14:36:25 2022


#	Modifying user name:	trannguyen
#	Modification time:	Wed Dec  7 14:36:25 2022

@<TRIPOS>MOLECULE
CHEMBL2368200
 33 36 0 0 0
SMALL
GASTEIGER

@<TRIPOS>ATOM
      1 C           3.2635   31.9623    5.9232 C.ar    1  UNL1       -0.0196
      2 C           2.4730   31.2086    6.8068 C.ar    1  UNL1        0.0149
      3 C           2.9369   30.8727    8.0765 C.ar    1  UNL1        0.0809
      4 N           4.1708   31.2548    8.4940 N.ar    1  UNL1       -0.2454
      5 C           4.9773   31.9923    7.6653 C.ar    1  UNL1        0.0809
      6 C           4.5541   32.3578    6.3593 C.ar    1  UNL1        0.0135
      7 C           6.2922   32.3598    8.2982 C.ar    1  UNL1        0.0178
      8 C           7.3913   31.4678    8.2562 C.ar    1  UNL1        0.0038
      9 C           8.6363   31.7903    8.8212 C.ar    1  UNL1        0.0297
     10 C           8.8134   33.0204    9.4343 C.ar    1  UNL1        0.1401
     11 F          10.0031   33.3431    9.9584 F       1  UNL1       -0.2042
     12 C           7.7676   33.9229    9.5040 C.ar    1  UNL1        0.0297
     13 C           6.5286   33.5937    8.9389 C.ar    1  UNL1        0.0038
     14 C           2.1113   30.1011    9.0426 C.ar    1  UNL1        0.0176
     15 C           0.7019   30.0792    8.9713 C.ar    1  UNL1        0.0015
     16 C          -0.0732   29.3426    9.8761 C.ar    1  UNL1        0.0000
     17 C           0.5424   28.6094   10.8836 C.ar    1  UNL1        0.0000
     18 C           1.9302   28.6170   10.9872 C.ar    1  UNL1        0.0000
     19 C           2.7026   29.3554   10.0793 C.ar    1  UNL1        0.0015
     20 C           2.7351   31.2103    3.5341 C.3     1  UNL1        0.0047
     21 C           2.6803   32.3501    4.5594 C.3     1  UNL1        0.0225
     22 C           1.2415   32.8678    4.6878 C.3     1  UNL1        0.0047
     23 C           5.3942   33.1350    5.4315 C.2     1  UNL1        0.0002
     24 C           6.1889   32.5671    4.5108 C.2     1  UNL1        0.0168
     25 C           7.1127   33.2985    3.5663 C.3     1  UNL1        0.1933
     26 C           7.5314   34.6349    4.1591 C.3     1  UNL1        0.0781
     27 C           8.5494   35.2573    3.2253 C.3     1  UNL1        0.1256
     28 O           9.7334   34.4611    3.2441 O.3     1  UNL1       -0.3837
     29 C           8.0121   35.3702    1.8121 C.3     1  UNL1        0.1388
     30 C           7.1016   34.2522    1.3546 C.2     1  UNL1        0.3197
     31 O           6.8217   34.1256    0.1697 O.2     1  UNL1       -0.2500
     32 O           6.4730   33.5106    2.2990 O.3     1  UNL1       -0.4475
     33 H          10.4321   34.9402    2.7625 H       1  UNL1        0.2104
@<TRIPOS>BOND
     1    20    21    1
     2    21    22    1
     3    21     1    1
     4     1     2   ar
     5     1     6   ar
     6     2     3   ar
     7     3    14    1
     8     3     4   ar
     9    14    15   ar
    10    14    19   ar
    11    15    16   ar
    12    16    17   ar
    13    17    18   ar
    14    18    19   ar
    15     4     5   ar
    16     5     7    1
    17     5     6   ar
    18     7     8   ar
    19     7    13   ar
    20     8     9   ar
    21     9    10   ar
    22    10    11    1
    23    10    12   ar
    24    12    13   ar
    25     6    23    1
    26    23    24    2
    27    25    26    1
    28    25    32    1
    29    25    24    1
    30    26    27    1
    31    27    29    1
    32    27    28    1
    33    28    33    1
    34    29    30    1
    35    30    31    2
    36    30    32    1






#	Name:			CHEMBL2368205
#	Creating user name:	trannguyen
#	Creation time:		Wed Dec  7 14:36:25 2022


#	Modifying user name:	trannguyen
#	Modification time:	Wed Dec  7 14:36:25 2022

@<TRIPOS>MOLECULE
CHEMBL2368205
 35 38 0 0 0
SMALL
GASTEIGER

@<TRIPOS>ATOM
      1 C           6.2863   33.2930    4.2623 C.ar    1  UNL1        0.0806
      2 C           6.8194   33.2368    5.5481 C.ar    1  UNL1        0.0191
      3 C           6.0340   32.8809    6.6590 C.ar    1  UNL1        0.0026
      4 C           4.6770   32.5800    6.4198 C.ar    1  UNL1        0.0134
      5 C           4.1905   32.6634    5.0994 C.ar    1  UNL1        0.0585
      6 N           4.9852   33.0086    4.0527 N.ar    1  UNL1       -0.2497
      7 C           8.0085   32.0925   -0.2914 C.3     1  UNL1        0.0310
      8 C           7.9735   33.0712    0.8438 C.ar    1  UNL1       -0.0218
      9 C           8.7076   34.2506    0.8001 C.ar    1  UNL1       -0.0046
     10 C           8.6428   35.1499    1.8615 C.ar    1  UNL1       -0.0045
     11 C           7.8561   34.8872    3.0011 C.ar    1  UNL1       -0.0204
     12 C           7.8700   35.9226    4.0968 C.3     1  UNL1        0.0311
     13 C           7.1026   33.6877    3.0799 C.ar    1  UNL1        0.0134
     14 C           7.1681   32.8171    1.9632 C.ar    1  UNL1       -0.0031
     15 C           6.6864   32.8917    7.9943 C.ar    1  UNL1        0.0002
     16 C           6.5569   33.9713    8.8858 C.ar    1  UNL1        0.0023
     17 C           7.1230   33.9310   10.1646 C.ar    1  UNL1        0.0296
     18 C           7.7990   32.7931   10.5799 C.ar    1  UNL1        0.1401
     19 F           8.3104   32.7405   11.8163 F       1  UNL1       -0.2042
     20 C           7.9387   31.7036    9.7337 C.ar    1  UNL1        0.0296
     21 C           7.3967   31.7590    8.4464 C.ar    1  UNL1        0.0023
     22 C           2.7113   32.4852    4.7655 C.3     1  UNL1        0.0403
     23 C           2.0879   33.8348    4.3965 C.3     1  UNL1        0.0063
     24 C           2.4834   31.4724    3.6381 C.3     1  UNL1        0.0063
     25 C           3.7527   32.2633    7.5134 C.2     1  UNL1        0.0001
     26 C           3.7978   31.1042    8.1919 C.2     1  UNL1        0.0168
     27 C           2.8475   30.7037    9.2918 C.3     1  UNL1        0.1933
     28 C           3.0753   29.2850    9.7899 C.3     1  UNL1        0.0781
     29 C           1.9300   28.8558   10.6720 C.3     1  UNL1        0.1256
     30 O           1.9176   29.6343   11.8647 O.3     1  UNL1       -0.3837
     31 C           0.6321   28.9290    9.9019 C.3     1  UNL1        0.1388
     32 C           0.4331   30.2238    9.1733 C.2     1  UNL1        0.3197
     33 O          -0.7022   30.5982    8.8570 O.2     1  UNL1       -0.2500
     34 O           1.5155   30.9136    8.7727 O.3     1  UNL1       -0.4475
     35 H           1.1978   30.2885   11.8397 H       1  UNL1        0.2104
@<TRIPOS>BOND
     1     7     8    1
     2     8     9   ar
     3     8    14   ar
     4     9    10   ar
     5    10    11   ar
     6    11    12    1
     7    11    13   ar
     8    13     1    1
     9    13    14   ar
    10     1     2   ar
    11     1     6   ar
    12     2     3   ar
    13     3    15    1
    14     3     4   ar
    15    15    16   ar
    16    15    21   ar
    17    16    17   ar
    18    17    18   ar
    19    18    19    1
    20    18    20   ar
    21    20    21   ar
    22     4    25    1
    23     4     5   ar
    24    25    26    2
    25    27    28    1
    26    27    34    1
    27    27    26    1
    28    28    29    1
    29    29    31    1
    30    29    30    1
    31    30    35    1
    32    31    32    1
    33    32    33    2
    34    32    34    1
    35     5    22    1
    36     5     6   ar
    37    22    23    1
    38    22    24    1






#	Name:			CHEMBL245416
#	Creating user name:	trannguyen
#	Creation time:		Wed Dec  7 14:36:25 2022


#	Modifying user name:	trannguyen
#	Modification time:	Wed Dec  7 14:36:25 2022

@<TRIPOS>MOLECULE
CHEMBL245416
 18 18 0 0 0
SMALL
GASTEIGER

@<TRIPOS>ATOM
      1 C           1.7916   30.1203   10.5283 C.3     1  UNL1        0.1330
      2 N           2.3406   30.7589    9.3075 N.ar    1  UNL1       -0.3203
      3 C           3.6934   31.0775    9.2138 C.ar    1  UNL1        0.0794
      4 C           4.2509   31.7323    8.1859 C.ar    1  UNL1        0.0639
      5 C           3.3718   32.1478    7.0684 C.ar    1  UNL1        0.2320
      6 O           3.7972   32.7551    6.0900 O.2     1  UNL1       -0.2832
      7 C           1.9225   31.8050    7.1672 C.ar    1  UNL1        0.1905
      8 O           1.0726   32.1757    6.1479 O.3     1  UNL1       -0.5018
      9 C           1.5089   31.1547    8.2623 C.ar    1  UNL1        0.1165
     10 H           1.6465   32.6446    5.5049 H       1  UNL1        0.2924
     11 N          -0.2692   28.6100   10.4117 N.3     1  UNL1       -0.3118
     12 CA          1.2222   28.7164   10.2403 C.3     1  UNL1        0.1737
     13 H1         -0.6785   29.1064    9.6097 H       1  UNL1        0.1193
     14 H2         -0.5416   29.2006   11.2049 H       1  UNL1        0.1193
     15 C           1.8891   27.7143   11.1867 C.2     1  UNL1        0.3299
     16 O           2.1232   27.9136   12.3705 O.2     1  UNL1       -0.2487
     17 OXT         2.2062   26.5576   10.5499 O.3     1  UNL1       -0.4792
     18 HXT         1.9527   26.6877    9.6008 H       1  UNL1        0.2951
@<TRIPOS>BOND
     1    11    12    1
     2    11    13    1
     3    11    14    1
     4    12     1    1
     5    12    15    1
     6     1     2    1
     7     2     3   ar
     8     2     9   ar
     9     3     4   ar
    10     4     5   ar
    11     5     6    2
    12     5     7   ar
    13     7     8    1
    14     7     9   ar
    15     8    10    1
    16    15    16    2
    17    15    17    1
    18    17    18    1



#	Name:			CHEMBL248702
#	Creating user name:	trannguyen
#	Creation time:		Wed Dec  7 14:36:25 2022


#	Modifying user name:	trannguyen
#	Modification time:	Wed Dec  7 14:36:25 2022

@<TRIPOS>MOLECULE
CHEMBL248702
 17 17 0 0 0
SMALL
GASTEIGER

@<TRIPOS>ATOM
      1 C           3.8831   31.5221    8.8560 C.ar    1  UNL1       -0.0209
      2 C           5.1992   31.2869    9.2739 C.ar    1  UNL1       -0.0042
      3 C           5.5368   30.1186    9.9593 C.ar    1  UNL1       -0.0004
      4 C           4.5564   29.1665   10.2359 C.ar    1  UNL1        0.0038
      5 C           3.2332   29.3723    9.8280 C.ar    1  UNL1        0.0711
      6 C           2.9035   30.5569    9.1389 C.ar    1  UNL1       -0.0004
      7 C           2.1636   28.3483   10.1219 C.3     1  UNL1        0.4186
      8 F           1.8212   28.2786   11.4412 F       1  UNL1       -0.1659
      9 F           1.0038   28.5947    9.4522 F       1  UNL1       -0.1659
     10 F           2.5366   27.0864    9.7705 F       1  UNL1       -0.1659
     11 C           3.5351   32.8158    8.1447 C.3     1  UNL1        0.0420
     12 C           3.5379   32.7635    6.5928 C.3     1  UNL1        0.0584
     13 C           4.9555   32.5131    6.0630 C.3     1  UNL1        0.0174
     14 N           2.9875   34.0413    6.0848 N.3     1  UNL1       -0.2983
     15 H           2.2447   34.3596    6.7089 H       1  UNL1        0.1232
     16 C           1.4669   32.8025    4.6092 C.3     1  UNL1        0.0185
     17 C           2.4550   33.9558    4.7237 C.3     1  UNL1        0.0686
@<TRIPOS>BOND
     1    16    17    1
     2    17    14    1
     3    14    12    1
     4    14    15    1
     5    12    13    1
     6    12    11    1
     7    11     1    1
     8     1     2   ar
     9     1     6   ar
    10     2     3   ar
    11     3     4   ar
    12     4     5   ar
    13     5     7    1
    14     5     6   ar
    15     7     8    1
    16     7     9    1
    17     7    10    1



#	Name:			CHEMBL252557
#	Creating user name:	trannguyen
#	Creation time:		Wed Dec  7 14:36:25 2022


#	Modifying user name:	trannguyen
#	Modification time:	Wed Dec  7 14:36:25 2022

@<TRIPOS>MOLECULE
CHEMBL252557
 7 6 0 0 0
SMALL
GASTEIGER

@<TRIPOS>ATOM
      1 O           1.8810   27.6758   12.1917 O.2     1  UNL1       -0.2475
      2 C           1.3442   28.2943   11.2874 C.2     1  UNL1        0.3441
      3 O           0.0809   28.0462   10.8551 O.3     1  UNL1       -0.4785
      4 H          -0.1280   28.6882   10.1363 H       1  UNL1        0.2951
      5 C           1.9783   29.4420   10.5172 C.3     1  UNL1        0.2478
      6 O           1.8458   30.6525   11.2713 O.3     1  UNL1       -0.3722
      7 H           0.9910   31.0479   11.0120 H       1  UNL1        0.2111
@<TRIPOS>BOND
     1     1     2    2
     2     2     3    1
     3     2     5    1
     4     3     4    1
     5     5     6    1
     6     6     7    1



#	Name:			CHEMBL254219
#	Creating user name:	trannguyen
#	Creation time:		Wed Dec  7 14:36:25 2022


#	Modifying user name:	trannguyen
#	Modification time:	Wed Dec  7 14:36:25 2022

@<TRIPOS>MOLECULE
CHEMBL254219
 59 66 0 0 0
SMALL
GASTEIGER

@<TRIPOS>ATOM
      1 C           8.7273   34.0903   -1.0053 C.3     1  UNL1        0.1715
      2 C           8.0179   34.0346   -2.3311 C.3     1  UNL1        0.1450
      3 O           7.1147   32.9391   -2.3848 O.3     1  UNL1       -0.3817
      4 C           7.4647   35.4654   -2.5766 C.3     1  UNL1        0.0931
      5 C           8.3273   36.5914   -1.9043 C.3     1  UNL1        0.2376
      6 O           9.6484   36.1766   -2.0551 O.3     1  UNL1       -0.3304
      7 C           9.9707   34.9747   -1.4096 C.3     1  UNL1        0.1473
      8 C          10.9606   34.3034   -2.4053 C.3     1  UNL1        0.0348
      9 H           6.2630   33.2102   -2.0164 H       1  UNL1        0.2104
     10 O           7.7422   34.6633   -0.0313 O.3     1  UNL1       -0.3279
     11 C           6.8092   32.3124    3.3053 C.3     1  UNL1        0.1715
     12 C           7.5239   31.5221    2.2178 C.3     1  UNL1        0.1450
     13 O           6.9307   30.2324    1.9846 O.3     1  UNL1       -0.3817
     14 C           7.4690   32.3934    1.0120 C.3     1  UNL1        0.0931
     15 C           7.4506   33.9692    1.2010 C.3     1  UNL1        0.2377
     16 O           8.2043   34.2938    2.3440 O.3     1  UNL1       -0.3304
     17 C           7.7280   33.5910    3.5371 C.3     1  UNL1        0.1473
     18 C           9.1089   33.2217    4.1090 C.3     1  UNL1        0.0348
     19 H           6.0916   30.3138    1.5013 H       1  UNL1        0.2104
     20 O           5.3480   32.4181    3.0376 O.3     1  UNL1       -0.3279
     21 C           3.3682   33.0729    7.3085 C.3     1  UNL1        0.0348
     22 C           3.2302   32.9294    5.8455 C.3     1  UNL1        0.1469
     23 O           4.4870   33.2572    5.1511 O.3     1  UNL1       -0.3304
     24 C           4.3845   33.2669    3.6952 C.3     1  UNL1        0.2377
     25 C           2.9277   32.9485    3.5260 C.3     1  UNL1        0.0931
     26 C           2.4278   31.6343    4.0885 C.3     1  UNL1        0.1446
     27 O           1.0413   31.8086    4.1315 O.3     1  UNL1       -0.3817
     28 C           2.8111   31.5002    5.5015 C.3     1  UNL1        0.1644
     29 O           1.6272   31.0527    6.1945 O.3     1  UNL1       -0.3795
     30 H           0.6683   31.2788    4.8595 H       1  UNL1        0.2104
     31 H           1.7769   30.1447    6.4975 H       1  UNL1        0.2105
     32 O           8.2412   37.8824   -2.5053 O.3     1  UNL1       -0.3330
     33 C           7.4090   38.8641   -1.8102 C.3     1  UNL1        0.1178
     34 C           8.1042   40.1511   -1.3322 C.3     1  UNL1        0.0296
     35 C           8.8593   40.8240   -2.4944 C.3     1  UNL1        0.0025
     36 C           7.9988   40.9808   -3.7914 C.3     1  UNL1        0.0002
     37 C           8.2577   42.4201   -4.2886 C.3     1  UNL1        0.0000
     38 C           8.3164   39.9248   -4.9149 C.3     1  UNL1        0.0022
     39 C           9.7703   39.8287   -5.4272 C.3     1  UNL1        0.0002
     40 C           9.8347   38.8642   -6.6263 C.3     1  UNL1        0.0026
     41 C           9.1032   39.4423   -7.8652 C.3     1  UNL1        0.0261
     42 C          10.1350   40.3306   -8.6189 C.3     1  UNL1        0.0026
     43 C           8.5664   38.3747   -8.8898 C.3     1  UNL1        0.0243
     44 C           7.4892   39.1654   -9.6499 C.3     1  UNL1        0.0066
     45 C           6.8072   40.0375   -8.6077 C.3     1  UNL1        0.0272
     46 C           7.8219   40.2614   -7.4625 C.3     1  UNL1        0.0884
     47 O           8.0772   41.6657   -7.4353 O.3     1  UNL1       -0.3867
     48 C           7.2668   39.8227   -6.0748 C.3     1  UNL1        0.0247
     49 C           5.8287   40.3131   -5.7852 C.3     1  UNL1        0.0023
     50 C           5.5606   41.0829   -4.5118 C.3     1  UNL1        0.0002
     51 C           6.5160   40.7617   -3.3782 C.3     1  UNL1        0.0024
     52 C           6.2846   39.3238   -2.7842 C.3     1  UNL1        0.0296
     53 H           8.8178   41.8378   -6.8329 H       1  UNL1        0.2102
     54 C           8.0493   37.0445   -8.3891 C.2     1  UNL1        0.0053
     55 C           6.8604   36.7172   -7.8845 C.2     1  UNL1        0.0769
     56 C           6.8187   35.2467   -7.6854 C.2     1  UNL1        0.3412
     57 O           5.9135   34.6410   -7.2876 O.2     1  UNL1       -0.2449
     58 O           8.0458   34.7546   -8.0851 O.3     1  UNL1       -0.4408
     59 C           8.8569   35.8102   -8.5881 C.3     1  UNL1        0.2314
@<TRIPOS>BOND
     1    21    22    1
     2    22    23    1
     3    22    28    1
     4    23    24    1
     5    24    25    1
     6    24    20    1
     7    20    11    1
     8    11    12    1
     9    11    17    1
    10    12    13    1
    11    12    14    1
    12    13    19    1
    13    14    15    1
    14    15    10    1
    15    15    16    1
    16    10     1    1
    17     1     2    1
    18     1     7    1
    19     2     3    1
    20     2     4    1
    21     3     9    1
    22     4     5    1
    23     5    32    1
    24     5     6    1
    25    33    34    1
    26    33    52    1
    27    33    32    1
    28    34    35    1
    29    35    36    1
    30    36    37    1
    31    36    38    1
    32    36    51    1
    33    38    39    1
    34    38    48    1
    35    39    40    1
    36    40    41    1
    37    41    42    1
    38    41    43    1
    39    41    46    1
    40    43    54    1
    41    43    44    1
    42    54    55    2
    43    54    59    1
    44    55    56    1
    45    56    57    2
    46    56    58    1
    47    58    59    1
    48    44    45    1
    49    45    46    1
    50    46    47    1
    51    46    48    1
    52    47    53    1
    53    48    49    1
    54    49    50    1
    55    50    51    1
    56    51    52    1
    57     6     7    1
    58     7     8    1
    59    16    17    1
    60    17    18    1
    61    25    26    1
    62    26    27    1
    63    26    28    1
    64    27    30    1
    65    28    29    1
    66    29    31    1



#	Name:			CHEMBL261621
#	Creating user name:	trannguyen
#	Creation time:		Wed Dec  7 14:36:25 2022


#	Modifying user name:	trannguyen
#	Modification time:	Wed Dec  7 14:36:25 2022

@<TRIPOS>MOLECULE
CHEMBL261621
 48 49 0 0 0
SMALL
GASTEIGER

@<TRIPOS>ATOM
      1 C           2.1170   31.9529    6.7352 C.2     3  PRO3        0.2409
      2 O           1.1980   31.1590    6.5190 O.2     3  PRO3       -0.2733
      3 N           2.5948   32.1994    8.0113 N.am    4  GLU4       -0.2970
      4 H           3.3537   32.8563    8.1042 H       4  GLU4        0.1499
      5 C           5.4107   32.6288    6.1690 C.2     2  PHE2        0.2442
      6 O           5.1745   33.4047    7.0985 O.2     2  PHE2       -0.2731
      7 N           4.3477   32.0757    5.4397 N.am    3  PRO3       -0.2717
      8 CD          4.4848   31.1813    4.3111 C.3     3  PRO3        0.0939
      9 CG          3.1008   31.0241    3.7027 C.3     3  PRO3        0.0237
     10 CB          2.2946   32.2062    4.2275 C.3     3  PRO3        0.0310
     11 CA          2.9526   32.5700    5.5722 C.3     3  PRO3        0.1518
     12 CA          6.8977   32.3717    5.6739 C.3     2  PHE2        0.1532
     13 C           8.5261   33.8977    4.4681 C.2     1  GLY1        0.2387
     14 O           9.1064   32.9926    3.8603 O.2     1  GLY1       -0.2736
     15 N           7.4798   33.6938    5.3453 N.am    2  PHE2       -0.2969
     16 H           7.1732   34.4871    5.8956 H       2  PHE2        0.1499
     17 N           8.3022   35.9340    3.0757 N.3     1  GLY1       -0.3135
     18 CA          8.9465   35.3526    4.2628 C.3     1  GLY1        0.1515
     19 H1          8.7082   36.8535    2.9012 H       1  GLY1        0.1193
     20 H2          7.3150   36.0812    3.2545 H       1  GLY1        0.1193
     21 CB          7.7523   31.4898    6.6399 C.3     2  PHE2        0.0553
     22 CG          7.6447   31.7359    8.1557 C.ar    2  PHE2       -0.0200
     23 CD1         6.8585   30.8790    8.9515 C.ar    2  PHE2       -0.0042
     24 CE1         6.6794   31.1114   10.3268 C.ar    2  PHE2       -0.0003
     25 CZ          7.2818   32.2046   10.9409 C.ar    2  PHE2       -0.0000
     26 CE2         8.0657   33.0598   10.1799 C.ar    2  PHE2       -0.0003
     27 CD2         8.2363   32.8292    8.8082 C.ar    2  PHE2       -0.0042
     28 CA          1.9212   31.7133    9.2227 C.3     4  GLU4        0.1491
     29 C           1.6054   32.9389   10.1274 C.2     4  GLU4        0.2407
     30 O           2.4439   33.4095   10.8765 O.2     4  GLU4       -0.2733
     31 N           0.3068   33.3989   10.0766 N.am    5  GLY5       -0.2953
     32 H          -0.3259   32.9655    9.4222 H       5  GLY5        0.1499
     33 CA         -0.3061   34.5067   10.8099 C.3     5  GLY5        0.1757
     34 C          -0.1249   36.0011   10.5021 C.2     5  GLY5        0.2429
     35 O          -1.0974   36.7317   10.3156 O.2     5  GLY5       -0.2732
     36 N           1.1462   36.4930   10.5905 N.am    6  GLY6       -0.2936
     37 H           1.9049   35.8487   10.8189 H       6  GLY6        0.1500
     38 CA          1.4934   37.8885   10.3691 C.3     6  GLY6        0.2004
     39 C           1.6562   38.2833    8.8955 C.2     6  GLY6        0.3341
     40 O           2.7346   38.4244    8.3486 O.2     6  GLY6       -0.2484
     41 OXT         0.4793   38.4325    8.2327 O.3     6  GLY6       -0.4790
     42 HXT        -0.2617   38.1644    8.8147 H       6  GLY6        0.2951
     43 CB          2.7698   30.6481    9.9501 C.3     4  GLU4        0.0406
     44 CG          2.2613   29.2121    9.7299 C.3     4  GLU4        0.1116
     45 CD          1.5789   28.6482   10.9456 C.2     4  GLU4        0.3139
     46 OE1         2.1680   28.2029   11.9360 O.2     4  GLU4       -0.2503
     47 OE2         0.2306   28.7106   10.8696 O.3     4  GLU4       -0.4802
     48 HE2        -0.1123   29.1049   10.0478 H       4  GLU4        0.2951
@<TRIPOS>BOND
     1    17    18    1
     2    17    19    1
     3    17    20    1
     4    18    13    1
     5    13    14    2
     6    13    15   am
     7    15    12    1
     8    15    16    1
     9    12    21    1
    10    12     5    1
    11    21    22    1
    12    22    23   ar
    13    22    27   ar
    14    23    24   ar
    15    24    25   ar
    16    25    26   ar
    17    26    27   ar
    18     5     6    2
    19     5     7   am
    20     7     8    1
    21     7    11    1
    22     8     9    1
    23     9    10    1
    24    10    11    1
    25    11     1    1
    26     1     2    2
    27     1     3   am
    28     3    28    1
    29     3     4    1
    30    28    43    1
    31    28    29    1
    32    43    44    1
    33    44    45    1
    34    45    46    2
    35    45    47    1
    36    47    48    1
    37    29    30    2
    38    29    31   am
    39    31    33    1
    40    31    32    1
    41    33    34    1
    42    34    35    2
    43    34    36   am
    44    36    38    1
    45    36    37    1
    46    38    39    1
    47    39    40    2
    48    39    41    1
    49    41    42    1



#	Name:			CHEMBL261748
#	Creating user name:	trannguyen
#	Creation time:		Wed Dec  7 14:36:25 2022


#	Modifying user name:	trannguyen
#	Modification time:	Wed Dec  7 14:36:25 2022

@<TRIPOS>MOLECULE
CHEMBL261748
 37 36 0 0 0
SMALL
GASTEIGER

@<TRIPOS>ATOM
      1 C           5.8945   32.7812    5.4143 C.2     2  VAL2        0.2406
      2 O           5.9161   34.0156    5.4159 O.2     2  VAL2       -0.2733
      3 N           4.7055   32.0831    5.5100 N.am    3  ALA3       -0.2970
      4 H           4.7394   31.0986    5.7435 H       3  ALA3        0.1499
      5 CA          3.4099   32.7522    5.5986 C.3     3  ALA3        0.1486
      6 CB          2.7622   32.9217    4.2211 C.3     3  ALA3        0.0312
      7 C           2.4370   31.9359    6.4769 C.2     3  ALA3        0.2407
      8 O           1.3461   31.5455    6.0778 O.2     3  ALA3       -0.2733
      9 N           2.9262   31.6479    7.7397 N.am    4  GLU4       -0.2954
     10 H           3.9367   31.4743    7.7636 H       4  GLU4        0.1499
     11 CA          2.0718   30.9463    8.7218 C.3     4  GLU4        0.1718
     12 C           1.1562   31.9730    9.4319 C.2     4  GLU4        0.3318
     13 O           1.3946   32.4731   10.4979 O.2     4  GLU4       -0.2485
     14 OXT        -0.0093   32.2298    8.7669 O.3     4  GLU4       -0.4791
     15 HXT        -0.1239   31.6378    8.0051 H       4  GLU4        0.2951
     16 CB          2.9316   30.0870    9.6780 C.3     4  GLU4        0.0427
     17 CG          2.4582   28.6382    9.8698 C.3     4  GLU4        0.1116
     18 CD          1.5854   28.4266   11.0994 C.2     4  GLU4        0.3139
     19 OE1         2.0086   28.0636   12.1775 O.2     4  GLU4       -0.2503
     20 OE2         0.2750   28.6941   10.8929 O.3     4  GLU4       -0.4802
     21 HE2         0.0569   29.0484   10.0123 H       4  GLU4        0.2951
     22 CA          7.1772   31.8996    5.2891 C.3     2  VAL2        0.1485
     23 C           7.2276   31.7185    2.7957 C.2     1  ILE1        0.2368
     24 O           6.0943   31.2413    2.7624 O.2     1  ILE1       -0.2737
     25 N           7.8080   32.1125    3.9879 N.am    2  VAL2       -0.2973
     26 H           8.6154   32.7246    3.9476 H       2  VAL2        0.1499
     27 CA          8.0690   31.9470    1.4980 C.3     1  ILE1        0.1282
     28 N           7.6341   30.9828    0.4528 N.3     1  ILE1       -0.3150
     29 H1          7.6995   30.0376    0.8247 H       1  ILE1        0.1192
     30 H2          8.3150   30.9987   -0.3070 H       1  ILE1        0.1192
     31 CB          8.0190   33.4146    0.9623 C.3     1  ILE1        0.0231
     32 CG2         7.3630   33.5211   -0.4265 C.3     1  ILE1        0.0019
     33 CD1         8.2143   35.4401    2.5818 C.3     1  ILE1        0.0001
     34 CG1         7.3046   34.4003    1.9327 C.3     1  ILE1        0.0018
     35 CB          8.1583   32.0733    6.4869 C.3     2  VAL2        0.0269
     36 CG1         8.1652   30.8686    7.4362 C.3     2  VAL2        0.0022
     37 CG2         9.6011   32.4044    6.0928 C.3     2  VAL2        0.0022
@<TRIPOS>BOND
     1    33    34    1
     2    31    32    1
     3    31    34    1
     4    27    28    1
     5    27    23    1
     6    27    31    1
     7    28    29    1
     8    28    30    1
     9    23    24    2
    10    23    25   am
    11    25    26    1
    12    22     1    1
    13    22    35    1
    14    22    25    1
    15     1     2    2
    16     1     3   am
    17     3     5    1
    18     3     4    1
    19     5     6    1
    20     5     7    1
    21     7     8    2
    22     7     9   am
    23     9    11    1
    24     9    10    1
    25    11    16    1
    26    11    12    1
    27    16    17    1
    28    17    18    1
    29    18    19    2
    30    18    20    1
    31    20    21    1
    32    12    13    2
    33    12    14    1
    34    14    15    1
    35    35    36    1
    36    35    37    1



#	Name:			CHEMBL267345
#	Creating user name:	trannguyen
#	Creation time:		Wed Dec  7 14:36:25 2022


#	Modifying user name:	trannguyen
#	Modification time:	Wed Dec  7 14:36:25 2022

@<TRIPOS>MOLECULE
CHEMBL267345
 78 80 0 0 0
SMALL
GASTEIGER

@<TRIPOS>ATOM
      1 C           9.9253   34.5702   -6.3872 C.3     1  UNL1        0.0474
      2 C           9.4487   35.4899   -5.2610 C.3     1  UNL1        0.1712
      3 O           9.3144   34.7766   -3.9928 O.3     1  UNL1       -0.4521
      4 C           8.6913   33.5720   -3.9206 C.2     1  UNL1        0.3194
      5 O           8.0247   33.0493   -4.8029 O.2     1  UNL1       -0.2500
      6 C           9.0395   32.8560   -2.6376 C.3     1  UNL1        0.1387
      7 C           8.3977   33.4654   -1.3918 C.3     1  UNL1        0.1241
      8 O           9.1688   34.5706   -0.9077 O.3     1  UNL1       -0.3838
      9 C           8.2967   32.4047   -0.2728 C.3     1  UNL1        0.0590
     10 C           7.7619   32.9603    1.0568 C.3     1  UNL1        0.1130
     11 O           8.7362   33.8297    1.6293 O.3     1  UNL1       -0.3844
     12 C           7.4559   31.8332    2.0621 C.3     1  UNL1        0.0319
     13 C           6.9376   32.3699    3.4060 C.3     1  UNL1        0.0342
     14 C           7.9355   32.4903    4.5897 C.3     1  UNL1        0.1373
     15 O           9.2803   32.7906    4.2052 O.3     1  UNL1       -0.3820
     16 C           7.4932   33.6373    5.5323 C.3     1  UNL1        0.1396
     17 O           7.6233   34.8601    4.7828 O.3     1  UNL1       -0.3819
     18 C           8.3088   33.7240    6.8477 C.3     1  UNL1        0.0611
     19 C           8.2231   35.1193    7.4947 C.3     1  UNL1        0.1179
     20 O           9.1790   35.9780    6.8528 O.3     1  UNL1       -0.3842
     21 C           8.4853   35.1587    9.0111 C.3     1  UNL1        0.0853
     22 C           7.5196   36.1365    9.7291 C.3     1  UNL1        0.1882
     23 O           6.2196   35.5609    9.6554 O.3     1  UNL1       -0.3634
     24 C           7.8253   36.3244   11.2129 C.3     1  UNL1        0.0859
     25 C           9.0315   37.2248   11.4453 C.3     1  UNL1        0.1283
     26 O           9.0801   37.5884   12.8326 O.3     1  UNL1       -0.3836
     27 C           8.9451   38.5135   10.6320 C.3     1  UNL1        0.1529
     28 C           8.5571   38.2401    9.1721 C.3     1  UNL1        0.1333
     29 C           8.2373   39.5576    8.4300 C.3     1  UNL1        0.0645
     30 C           7.8338   39.3243    6.9607 C.3     1  UNL1        0.1423
     31 C           8.4472   40.3938    6.0907 C.2     1  UNL1        0.0030
     32 C           9.4397   40.1266    5.2306 C.2     1  UNL1       -0.0022
     33 C          10.0194   41.0432    4.2801 C.2     1  UNL1       -0.0003
     34 C           9.3116   41.9059    3.5343 C.2     1  UNL1       -0.0000
     35 C           9.8817   42.5357    2.3639 C.2     1  UNL1       -0.0000
     36 C           9.1306   43.1732    1.4523 C.2     1  UNL1       -0.0000
     37 C           9.6313   43.4027    0.1141 C.2     1  UNL1        0.0000
     38 C           8.8165   43.6853   -0.9143 C.2     1  UNL1        0.0000
     39 C           9.2335   43.4204   -2.2740 C.2     1  UNL1       -0.0000
     40 C           8.3676   43.3784   -3.2981 C.2     1  UNL1       -0.0000
     41 C           8.6711   42.7084   -4.5464 C.2     1  UNL1       -0.0000
     42 C           9.0556   41.4212   -4.5495 C.2     1  UNL1       -0.0003
     43 C           9.2419   40.6119   -5.7292 C.2     1  UNL1       -0.0045
     44 C           9.5355   39.3030   -5.6382 C.2     1  UNL1       -0.0240
     45 C           9.6772   38.3072   -6.7730 C.3     1  UNL1        0.0490
     46 C           9.9244   38.9740   -8.1364 C.3     1  UNL1        0.0072
     47 C           8.4451   37.3520   -6.8165 C.3     1  UNL1        0.1178
     48 O           8.4863   36.5365   -7.9893 O.3     1  UNL1       -0.3840
     49 C           8.2501   36.4335   -5.5675 C.3     1  UNL1        0.0673
     50 C           6.9141   35.6870   -5.7006 C.3     1  UNL1        0.0062
     51 O           7.3979   37.4069    9.1140 O.3     1  UNL1       -0.3361
     52 H          10.1148   34.3653   -1.0241 H       1  UNL1        0.2104
     53 H           8.8844   34.5288    0.9537 H       1  UNL1        0.2103
     54 H           9.4258   32.5199    3.2820 H       1  UNL1        0.2104
     55 H           8.5088   34.7836    4.3620 H       1  UNL1        0.2104
     56 H          10.0420   35.5286    6.8616 H       1  UNL1        0.2103
     57 H           5.7601   36.1605    9.0333 H       1  UNL1        0.2128
     58 H           9.0967   36.7629   13.3526 H       1  UNL1        0.2104
     59 H           8.1796   37.0772   -8.7379 H       1  UNL1        0.2104
     60 C          10.2946   39.1891   10.7000 C.2     1  UNL1        0.3181
     61 O          10.4692   40.4030   10.5993 O.2     1  UNL1       -0.2501
     62 O          11.3222   38.3276   10.8542 O.3     1  UNL1       -0.4801
     63 H          11.0393   37.3941   10.7525 H       1  UNL1        0.2951
     64 O           6.4080   39.3815    6.8648 O.3     1  UNL1       -0.3266
     65 C           5.8138   40.6830    6.7807 C.3     1  UNL1        0.2647
     66 O           6.1646   41.3887    7.9817 O.3     1  UNL1       -0.3286
     67 C           5.7395   42.7546    7.9796 C.3     1  UNL1        0.1460
     68 C           6.2233   43.3835    9.2819 C.3     1  UNL1        0.0348
     69 C           4.2145   42.8609    7.8427 C.3     1  UNL1        0.1541
     70 O           3.7910   44.2268    7.7610 O.3     1  UNL1       -0.3805
     71 C           3.7506   42.1300    6.5676 C.3     1  UNL1        0.1127
     72 N           2.2654   42.2197    6.4816 N.3     1  UNL1       -0.3181
     73 C           4.2749   40.6852    6.5696 C.3     1  UNL1        0.1835
     74 O           3.5924   39.9702    7.6097 O.3     1  UNL1       -0.3783
     75 H           2.8810   44.1710    7.4009 H       1  UNL1        0.2105
     76 H           1.8912   41.7027    7.2853 H       1  UNL1        0.1190
     77 H           1.9537   41.6534    5.6873 H       1  UNL1        0.1190
     78 H           2.7537   39.6720    7.1929 H       1  UNL1        0.2106
@<TRIPOS>BOND
     1     1     2    1
     2     2     3    1
     3     2    49    1
     4     3     4    1
     5     4     5    2
     6     4     6    1
     7     6     7    1
     8     7     9    1
     9     7     8    1
    10     8    52    1
    11     9    10    1
    12    10    12    1
    13    10    11    1
    14    11    53    1
    15    12    13    1
    16    13    14    1
    17    14    15    1
    18    14    16    1
    19    15    54    1
    20    16    18    1
    21    16    17    1
    22    17    55    1
    23    18    19    1
    24    19    21    1
    25    19    20    1
    26    20    56    1
    27    21    22    1
    28    22    23    1
    29    22    24    1
    30    22    51    1
    31    23    57    1
    32    24    25    1
    33    25    26    1
    34    25    27    1
    35    26    58    1
    36    27    28    1
    37    27    60    1
    38    60    61    2
    39    60    62    1
    40    62    63    1
    41    28    29    1
    42    28    51    1
    43    29    30    1
    44    30    64    1
    45    30    31    1
    46    65    66    1
    47    65    73    1
    48    65    64    1
    49    66    67    1
    50    67    68    1
    51    67    69    1
    52    69    71    1
    53    69    70    1
    54    70    75    1
    55    71    72    1
    56    71    73    1
    57    72    76    1
    58    72    77    1
    59    73    74    1
    60    74    78    1
    61    31    32    2
    62    32    33    1
    63    33    34    2
    64    34    35    1
    65    35    36    2
    66    36    37    1
    67    37    38    2
    68    38    39    1
    69    39    40    2
    70    40    41    1
    71    41    42    2
    72    42    43    1
    73    43    44    2
    74    44    45    1
    75    45    47    1
    76    45    46    1
    77    47    48    1
    78    47    49    1
    79    48    59    1
    80    49    50    1



#	Name:			CHEMBL267744
#	Creating user name:	trannguyen
#	Creation time:		Wed Dec  7 14:36:25 2022


#	Modifying user name:	trannguyen
#	Modification time:	Wed Dec  7 14:36:25 2022

@<TRIPOS>MOLECULE
CHEMBL267744
 21 22 0 0 0
SMALL
GASTEIGER

@<TRIPOS>ATOM
      1 C           3.8544   30.6531    9.4375 C.ar    1  UNL1        0.1506
      2 C           2.8074   30.7685    8.5237 C.ar    1  UNL1        0.0380
      3 C           2.9532   31.5460    7.3822 C.ar    1  UNL1        0.0072
      4 C           4.1435   32.2406    7.1370 C.ar    1  UNL1        0.0510
      5 C           5.2413   32.0761    7.9996 C.ar    1  UNL1        0.0742
      6 CL          6.7769   32.7996    7.6389 Cl      1  UNL1       -0.0812
      7 C           5.0795   31.3025    9.1681 C.ar    1  UNL1        0.1021
      8 CL          6.3749   31.1408   10.3205 Cl      1  UNL1       -0.0782
      9 C           4.1740   33.0966    5.9186 C.2     1  UNL1        0.2023
     10 O           3.4955   34.1169    5.9351 O.2     1  UNL1       -0.2860
     11 C           5.0657   32.7175    4.8241 C.ar    1  UNL1        0.0684
     12 C           5.3038   31.4859    4.2360 C.ar    1  UNL1        0.0102
     13 C           6.2769   31.5612    3.1896 C.ar    1  UNL1        0.0076
     14 C           6.7612   32.8298    3.0236 C.ar    1  UNL1        0.0355
     15 S           6.0416   33.9367    4.1087 S.2     1  UNL1       -0.0832
     16 O           3.7801   29.8717   10.5673 O.3     1  UNL1       -0.4629
     17 C           3.4926   28.4805   10.4168 C.3     1  UNL1        0.3139
     18 O           2.1510   26.8535   11.6116 O.2     1  UNL1       -0.2461
     19 C           2.2923   28.0047   11.2296 C.2     1  UNL1        0.3589
     20 O           1.3976   28.9792   11.5188 O.3     1  UNL1       -0.4776
     21 H           1.6496   29.8389   11.1217 H       1  UNL1        0.2952
@<TRIPOS>BOND
     1    18    19    2
     2    19    20    1
     3    19    17    1
     4    20    21    1
     5    17    16    1
     6    16     1    1
     7     1     2   ar
     8     1     7   ar
     9     2     3   ar
    10     3     4   ar
    11     4     9    1
    12     4     5   ar
    13     9    10    2
    14     9    11    1
    15    11    12   ar
    16    11    15   ar
    17    12    13   ar
    18    13    14   ar
    19    14    15   ar
    20     5     6    1
    21     5     7   ar
    22     7     8    1



#	Name:			CHEMBL267894
#	Creating user name:	trannguyen
#	Creation time:		Wed Dec  7 14:36:25 2022


#	Modifying user name:	trannguyen
#	Modification time:	Wed Dec  7 14:36:25 2022

@<TRIPOS>MOLECULE
CHEMBL267894
 18 18 0 0 0
SMALL
GASTEIGER

@<TRIPOS>ATOM
      1 C           2.1371   31.1960    9.0479 C.3     1  UNL1        0.1396
      2 C           2.9171   30.3380   10.0414 C.2     1  UNL1        0.2564
      3 O           4.0969   30.5938   10.2898 O.2     1  UNL1       -0.2724
      4 N           2.3164   29.2432   10.6054 N.am    1  UNL1       -0.1307
      5 C           1.0540   29.0995   10.4666 C.2     1  UNL1        0.2779
      6 O           0.4530   28.0487   11.0221 O.2     1  UNL1       -0.4829
      7 N           0.2129   29.9045    9.8033 N.am    1  UNL1       -0.2412
      8 C           0.6369   31.0044    9.1302 C.2     1  UNL1        0.2366
      9 O          -0.1717   31.7481    8.5795 O.2     1  UNL1       -0.2742
     10 H           1.1350   27.5202   11.4722 H       1  UNL1        0.2949
     11 H          -0.7779   29.7070    9.8249 H       1  UNL1        0.1590
     12 C           1.7596   33.2767   10.5572 C.3     1  UNL1        0.0010
     13 C           2.4546   32.6968    9.3223 C.3     1  UNL1        0.0174
     14 C           2.6098   30.8245    7.6034 C.3     1  UNL1        0.0174
     15 C           2.6517   31.9960    6.5966 C.3     1  UNL1        0.0010
     16 C           1.9909   31.6999    5.2296 C.3     1  UNL1        0.0000
     17 C           1.4455   32.9540    4.5449 C.3     1  UNL1        0.0000
     18 C           3.0006   31.0200    4.2947 C.3     1  UNL1        0.0000
@<TRIPOS>BOND
     1    12    13    1
     2    13     1    1
     3     1    14    1
     4     1     2    1
     5     1     8    1
     6    14    15    1
     7    15    16    1
     8    16    17    1
     9    16    18    1
    10     2     3    2
    11     2     4    1
    12     4     5    2
    13     5     6    1
    14     5     7    1
    15     6    10    1
    16     7     8   am
    17     7    11    1
    18     8     9    2



#	Name:			CHEMBL269732
#	Creating user name:	trannguyen
#	Creation time:		Wed Dec  7 14:36:25 2022


#	Modifying user name:	trannguyen
#	Modification time:	Wed Dec  7 14:36:25 2022

@<TRIPOS>MOLECULE
CHEMBL269732
 60 63 0 0 0
SMALL
GASTEIGER

@<TRIPOS>ATOM
      1 C           8.9617   33.6019   -6.0377 C.3     1  UNL1        0.0833
      2 C           9.4945   34.9466   -6.4747 C.2     1  UNL1       -0.0272
      3 C          10.2798   35.2412   -7.5298 C.2     1  UNL1       -0.0478
      4 C          10.7613   34.2618   -8.5637 C.3     1  UNL1        0.0260
      5 C          10.7016   36.6840   -7.7709 C.3     1  UNL1        0.0218
      6 C           9.5246   37.5247   -8.3152 C.3     1  UNL1        0.0065
      7 C           9.8652   38.0987   -9.6861 C.3     1  UNL1        0.0004
      8 C           8.9610   38.5276   -7.2719 C.3     1  UNL1        0.0325
      9 C           9.2056   40.0438   -7.4826 C.3     1  UNL1        0.1448
     10 C           8.0540   40.9203   -6.8776 C.3     1  UNL1        0.1718
     11 O           7.5714   40.2841   -5.6773 O.3     1  UNL1       -0.3261
     12 C           6.5073   40.9068   -4.9516 C.3     1  UNL1        0.2456
     13 O           5.8009   39.8041   -4.4083 O.3     1  UNL1       -0.3580
     14 C           7.1010   41.8543   -3.8837 C.2     1  UNL1        0.2764
     15 O           8.0437   42.6272   -4.0709 O.2     1  UNL1       -0.2814
     16 C           6.4532   41.8198   -2.5158 C.2     1  UNL1        0.2892
     17 O           5.2752   42.2048   -2.4277 O.2     1  UNL1       -0.2666
     18 N           7.2091   41.3998   -1.4252 N.am    1  UNL1       -0.2654
     19 C           6.5347   41.2357   -0.1410 C.3     1  UNL1        0.0943
     20 C           7.3857   41.7664    1.0043 C.3     1  UNL1        0.0216
     21 C           8.7767   41.1420    0.9984 C.3     1  UNL1        0.0040
     22 C           9.4469   41.2815   -0.3669 C.3     1  UNL1        0.0314
     23 C           8.5674   40.8146   -1.5369 C.3     1  UNL1        0.1749
     24 C           8.4487   39.2875   -1.7620 C.2     1  UNL1        0.3354
     25 O           7.5865   38.8001   -2.4942 O.2     1  UNL1       -0.2483
     26 O           9.4397   38.5878   -1.1551 O.3     1  UNL1       -0.4468
     27 C           9.5203   37.1281   -1.2726 C.3     1  UNL1        0.1892
     28 C           9.6746   36.6323   -2.7499 C.3     1  UNL1        0.0715
     29 C          10.6120   37.5685   -3.5184 C.3     1  UNL1        0.0066
     30 C          10.1429   35.1338   -2.8566 C.3     1  UNL1        0.1216
     31 O          11.3712   35.0568   -3.5826 O.3     1  UNL1       -0.3839
     32 C           9.0610   34.2257   -3.4821 C.3     1  UNL1        0.0941
     33 C           9.5220   33.3474   -4.6317 C.2     1  UNL1        0.1570
     34 O          10.3858   32.4875   -4.4270 O.2     1  UNL1       -0.2956
     35 C           5.5528   41.7160   -5.8713 C.3     1  UNL1        0.0616
     36 C           4.1119   41.8365   -5.3652 C.3     1  UNL1        0.0056
     37 C           5.5354   41.0943   -7.2613 C.3     1  UNL1        0.0375
     38 C           6.9121   41.2148   -7.9061 C.3     1  UNL1        0.1450
     39 H           6.4619   39.2827   -3.9069 H       1  UNL1        0.2132
     40 H          11.6189   34.1151   -3.6867 H       1  UNL1        0.2104
     41 C           8.4509   36.5090   -0.3566 C.2     1  UNL1       -0.0088
     42 C           7.1096   36.3546   -1.0314 C.3     1  UNL1        0.0296
     43 C           8.6692   36.1281    0.9221 C.2     1  UNL1       -0.0314
     44 C           7.7307   35.4874    1.9390 C.3     1  UNL1        0.0241
     45 C           8.3604   35.4871    3.3389 C.3     1  UNL1        0.0070
     46 C           7.4717   34.7509    4.3380 C.3     1  UNL1        0.0321
     47 C           7.2706   33.2908    3.9369 C.3     1  UNL1        0.1375
     48 O           6.3878   32.6893    4.8907 O.3     1  UNL1       -0.3820
     49 C           6.7009   33.1483    2.5045 C.3     1  UNL1        0.1423
     50 C           7.4493   34.0426    1.5015 C.3     1  UNL1        0.0364
     51 H           6.4058   31.7310    4.7089 H       1  UNL1        0.2104
     52 O           6.8387   31.7588    2.1193 O.3     1  UNL1       -0.3511
     53 C           7.8946   31.4941    1.1953 C.3     1  UNL1        0.1741
     54 O          10.5051   40.4786   -7.0330 O.3     1  UNL1       -0.3510
     55 C          11.3366   41.1239   -7.9788 C.3     1  UNL1        0.1741
     56 O           6.9720   40.4031   -9.0873 O.3     1  UNL1       -0.3510
     57 C           5.8801   39.4920   -9.2097 C.3     1  UNL1        0.1741
     58 C           7.4224   33.5082   -6.0716 C.3     1  UNL1        0.0377
     59 C           7.5508   32.1150   -8.1578 C.2     1  UNL1       -0.0049
     60 C           6.8975   32.4876   -7.0489 C.2     1  UNL1       -0.0254
@<TRIPOS>BOND
     1    59    60    2
     2    60    58    1
     3    58     1    1
     4     1     2    1
     5     1    33    1
     6     2     3    2
     7     3     5    1
     8     3     4    1
     9     5     6    1
    10     6     8    1
    11     6     7    1
    12     8     9    1
    13     9    10    1
    14     9    54    1
    15    54    55    1
    16    10    11    1
    17    10    38    1
    18    11    12    1
    19    12    14    1
    20    12    35    1
    21    12    13    1
    22    13    39    1
    23    14    16    1
    24    14    15    2
    25    16    18   am
    26    16    17    2
    27    18    19    1
    28    18    23    1
    29    19    20    1
    30    20    21    1
    31    21    22    1
    32    22    23    1
    33    23    24    1
    34    24    26    1
    35    24    25    2
    36    26    27    1
    37    27    28    1
    38    27    41    1
    39    41    42    1
    40    41    43    2
    41    44    45    1
    42    44    50    1
    43    44    43    1
    44    45    46    1
    45    46    47    1
    46    47    49    1
    47    47    48    1
    48    48    51    1
    49    49    52    1
    50    49    50    1
    51    52    53    1
    52    28    30    1
    53    28    29    1
    54    30    32    1
    55    30    31    1
    56    31    40    1
    57    32    33    1
    58    33    34    2
    59    35    37    1
    60    35    36    1
    61    37    38    1
    62    38    56    1
    63    56    57    1



#	Name:			CHEMBL273348
#	Creating user name:	trannguyen
#	Creation time:		Wed Dec  7 14:36:25 2022


#	Modifying user name:	trannguyen
#	Modification time:	Wed Dec  7 14:36:25 2022

@<TRIPOS>MOLECULE
CHEMBL273348
 32 35 0 0 0
SMALL
GASTEIGER

@<TRIPOS>ATOM
      1 C           5.1554   32.3528    4.6173 C.ar    1  UNL1        0.1610
      2 N           5.5521   32.3189    5.9184 N.ar    1  UNL1       -0.2109
      3 C           4.6574   32.1134    6.9261 C.ar    1  UNL1        0.1524
      4 C           3.2959   31.9907    6.6225 C.ar    1  UNL1        0.0760
      5 C           2.8624   32.0424    5.3003 C.ar    1  UNL1        0.0387
      6 C           3.7999   32.2246    4.3011 C.ar    1  UNL1        0.1717
      7 F           3.3650   32.2829    3.0328 F       1  UNL1       -0.2012
      8 C           2.2949   31.8185    7.6861 C.ar    1  UNL1        0.2063
      9 O           1.0967   31.7256    7.4307 O.2     1  UNL1       -0.2862
     10 C           2.7615   31.7475    9.0764 C.ar    1  UNL1        0.1318
     11 C           4.0854   31.8370    9.2724 C.ar    1  UNL1        0.0911
     12 N           5.0850   32.0281    8.3110 N.ar    1  UNL1       -0.2877
     13 N           7.7385   31.3166    0.5792 N.3     1  UNL1       -0.3208
     14 C           7.5272   32.0689    1.8138 C.3     1  UNL1        0.0726
     15 C           6.8205   33.4001    1.5716 C.3     1  UNL1        0.0387
     16 C           6.3368   33.7945    2.9670 C.3     1  UNL1        0.0937
     17 N           6.1182   32.5207    3.6481 N.pl3   1  UNL1       -0.2900
     18 C           6.5987   31.3952    2.8499 C.3     1  UNL1        0.1077
     19 H           8.2741   31.8845   -0.0772 H       1  UNL1        0.1189
     20 H           6.8438   31.1346    0.1250 H       1  UNL1        0.1189
     21 C           6.4683   32.1364    8.7249 C.ar    1  UNL1        0.0929
     22 C           7.3523   31.0424    8.6300 C.ar    1  UNL1        0.0221
     23 C           8.6964   31.1424    9.0109 C.ar    1  UNL1        0.0313
     24 C           9.1762   32.3325    9.5345 C.ar    1  UNL1        0.1425
     25 F          10.4578   32.4214    9.9111 F       1  UNL1       -0.2041
     26 C           8.3431   33.4276    9.6720 C.ar    1  UNL1        0.0608
     27 C           7.0149   33.3293    9.2565 C.ar    1  UNL1        0.1584
     28 F           6.2732   34.4440    9.3527 F       1  UNL1       -0.2026
     29 C           1.8561   31.5732   10.2312 C.2     1  UNL1        0.3427
     30 O           2.0501   30.7506   11.1181 O.2     1  UNL1       -0.2449
     31 O           0.7860   32.3958   10.2393 O.3     1  UNL1       -0.4770
     32 H           0.7417   33.0182    9.4734 H       1  UNL1        0.2954
@<TRIPOS>BOND
     1    13    14    1
     2    13    19    1
     3    13    20    1
     4    14    15    1
     5    14    18    1
     6    15    16    1
     7    16    17    1
     8    17     1    1
     9    17    18    1
    10     1     2   ar
    11     1     6   ar
    12     2     3   ar
    13     3     4   ar
    14     3    12   ar
    15     4     5   ar
    16     4     8   ar
    17     5     6   ar
    18     6     7    1
    19     8     9    2
    20     8    10   ar
    21    10    29    1
    22    10    11   ar
    23    29    30    2
    24    29    31    1
    25    31    32    1
    26    11    12   ar
    27    12    21    1
    28    21    22   ar
    29    21    27   ar
    30    22    23   ar
    31    23    24   ar
    32    24    25    1
    33    24    26   ar
    34    26    27   ar
    35    27    28    1



#	Name:			CHEMBL276717
#	Creating user name:	trannguyen
#	Creation time:		Wed Dec  7 14:36:25 2022


#	Modifying user name:	trannguyen
#	Modification time:	Wed Dec  7 14:36:25 2022

@<TRIPOS>MOLECULE
CHEMBL276717
 35 37 0 0 0
SMALL
GASTEIGER

@<TRIPOS>ATOM
      1 C           4.1217   32.1379    6.2145 C.2     1  UNL1        0.0855
      2 C           5.4816   32.3899    6.3888 C.2     1  UNL1        0.0178
      3 C           6.4184   32.6545    5.2233 C.ar    1  UNL1        0.0016
      4 C           6.7726   31.6538    4.2921 C.ar    1  UNL1        0.0024
      5 C           7.4821   31.9749    3.1176 C.ar    1  UNL1        0.0296
      6 C           7.8392   33.2929    2.8659 C.ar    1  UNL1        0.1401
      7 F           8.4612   33.6109    1.7212 F       1  UNL1       -0.2042
      8 C           7.5432   34.2868    3.7870 C.ar    1  UNL1        0.0296
      9 C           6.8475   33.9669    4.9626 C.ar    1  UNL1        0.0024
     10 C           6.1314   32.4352    7.7878 C.ar    1  UNL1        0.0016
     11 C           6.9958   31.4102    8.2410 C.ar    1  UNL1        0.0024
     12 C           7.5262   31.4089    9.5490 C.ar    1  UNL1        0.0296
     13 C           7.2649   32.4712   10.3994 C.ar    1  UNL1        0.1401
     14 F           7.7642   32.4735   11.6447 F       1  UNL1       -0.2042
     15 C           6.5055   33.5436    9.9530 C.ar    1  UNL1        0.0296
     16 C           5.9411   33.5251    8.6590 C.ar    1  UNL1        0.0024
     17 C           2.4867   34.3325    4.2537 C.3     1  UNL1        0.0758
     18 C           2.7134   32.8722    4.1051 C.ar    1  UNL1        0.1658
     19 N           2.2106   32.2231    3.0722 N.ar    1  UNL1       -0.1123
     20 N           2.6200   30.9433    3.1787 N.ar    1  UNL1       -0.0227
     21 N           3.3896   30.7768    4.2358 N.ar    1  UNL1       -0.0388
     22 N           3.4720   31.9640    4.9188 N.ar    1  UNL1       -0.1953
     23 C           3.2403   31.9968    7.3911 C.2     1  UNL1        0.0171
     24 C           1.9901   31.4971    7.3850 C.2     1  UNL1        0.0041
     25 C           1.1344   31.2821    8.6063 C.3     1  UNL1        0.1350
     26 O          -0.0130   32.1278    8.5238 O.3     1  UNL1       -0.3800
     27 H          -0.1801   32.4586    9.4247 H       1  UNL1        0.2108
     28 C           0.7671   29.8104    8.8635 C.3     1  UNL1        0.0634
     29 C           0.9787   29.2472   10.2768 C.3     1  UNL1        0.1188
     30 O           0.1359   28.0940   10.3701 O.3     1  UNL1       -0.3840
     31 H           0.4416   27.5878   11.1547 H       1  UNL1        0.2104
     32 C           2.4128   28.8260   10.4916 C.3     1  UNL1        0.0710
     33 C           2.6488   27.3348   10.5725 C.2     1  UNL1        0.0528
     34 O           2.9018   26.7209    9.5432 O.co2   1  UNL1       -0.5491
     35 O           2.2361   26.8533   11.6976 O.co2   1  UNL1       -0.5491
@<TRIPOS>UNITY_ATOM_ATTR
34 1
charge -1
@<TRIPOS>BOND
     1    17    18    1
     2    18    19   ar
     3    18    22   ar
     4    19    20   ar
     5    20    21   ar
     6    21    22   ar
     7    22     1    1
     8     1    23    1
     9     1     2    2
    10    23    24    2
    11    24    25    1
    12    25    26    1
    13    25    28    1
    14    26    27    1
    15    28    29    1
    16    29    30    1
    17    29    32    1
    18    30    31    1
    19    32    33    1
    20    33    34   ar
    21    33    35   ar
    22     2     3    1
    23     2    10    1
    24     3     4   ar
    25     3     9   ar
    26     4     5   ar
    27     5     6   ar
    28     6     7    1
    29     6     8   ar
    30     8     9   ar
    31    10    11   ar
    32    10    16   ar
    33    11    12   ar
    34    12    13   ar
    35    13    14    1
    36    13    15   ar
    37    15    16   ar



#	Name:			CHEMBL276832
#	Creating user name:	trannguyen
#	Creation time:		Wed Dec  7 14:36:25 2022


#	Modifying user name:	trannguyen
#	Modification time:	Wed Dec  7 14:36:25 2022

@<TRIPOS>MOLECULE
CHEMBL276832
 15 16 0 0 0
SMALL
GASTEIGER

@<TRIPOS>ATOM
      1 C           1.2642   29.5232    9.5008 C.ar    1  UNL1        0.1630
      2 N           0.4222   30.3423    8.8183 N.ar    1  UNL1       -0.1319
      3 N           0.8821   31.4762    8.2197 N.ar    1  UNL1       -0.1452
      4 C           2.1926   31.7726    8.2988 C.ar    1  UNL1        0.1222
      5 C           3.1165   30.9732    8.9601 C.ar    1  UNL1        0.0237
      6 C           4.4818   31.3107    9.0119 C.ar    1  UNL1        0.0017
      7 C           5.3933   30.4855    9.6687 C.ar    1  UNL1        0.0001
      8 C           4.9537   29.3143   10.2747 C.ar    1  UNL1        0.0001
      9 C           3.6001   28.9716   10.2305 C.ar    1  UNL1        0.0029
     10 C           2.6495   29.7977    9.5805 C.ar    1  UNL1        0.0359
     11 N          -0.6411   28.3647   10.4730 N.3     1  UNL1       -0.2553
     12 N           0.7387   28.3478   10.1263 N.pl3   1  UNL1       -0.2656
     13 H          -1.1920   28.3485    9.6076 H       1  UNL1        0.1404
     14 H          -0.8755   29.2775   10.8830 H       1  UNL1        0.1404
     15 H           1.3511   28.1008   10.9076 H       1  UNL1        0.1675
@<TRIPOS>BOND
     1    11    12    1
     2    11    13    1
     3    11    14    1
     4    12     1    1
     5    12    15    1
     6     1     2   ar
     7     1    10   ar
     8     2     3   ar
     9     3     4   ar
    10     4     5   ar
    11     5     6   ar
    12     5    10   ar
    13     6     7   ar
    14     7     8   ar
    15     8     9   ar
    16     9    10   ar



#	Name:			CHEMBL277474
#	Creating user name:	trannguyen
#	Creation time:		Wed Dec  7 14:36:25 2022


#	Modifying user name:	trannguyen
#	Modification time:	Wed Dec  7 14:36:25 2022

@<TRIPOS>MOLECULE
CHEMBL277474
 14 15 0 0 0
SMALL
GASTEIGER

@<TRIPOS>ATOM
      1 C           1.5028   28.8402   10.4338 C.3     1  UNL1        0.0518
      2 C           2.3049   29.8210    9.6467 C.ar    1  UNL1        0.0594
      3 C           3.6229   30.0207    9.7760 C.ar    1  UNL1        0.0767
      4 C           3.9764   31.0718    8.7978 C.ar    1  UNL1        0.2801
      5 O           5.1265   31.4458    8.6354 O.2     1  UNL1       -0.2652
      6 N           2.7917   31.4105    8.1324 N.ar    1  UNL1       -0.2145
      7 N           1.7146   30.6547    8.6892 N.ar    1  UNL1       -0.2659
      8 C           0.5643   31.4737    9.1087 C.3     1  UNL1        0.1518
      9 C           2.7083   31.9867    6.8374 C.ar    1  UNL1        0.0841
     10 C           2.1970   31.2549    5.7568 C.ar    1  UNL1        0.0192
     11 C           2.1111   31.8183    4.4789 C.ar    1  UNL1        0.0015
     12 C           2.5326   33.1266    4.2616 C.ar    1  UNL1        0.0001
     13 C           3.0357   33.8730    5.3224 C.ar    1  UNL1        0.0015
     14 C           3.1201   33.3074    6.5990 C.ar    1  UNL1        0.0192
@<TRIPOS>BOND
     1     1     2    1
     2     2     3   ar
     3     2     7   ar
     4     3     4   ar
     5     4     5    2
     6     4     6   ar
     7     6     9    1
     8     6     7   ar
     9     9    10   ar
    10     9    14   ar
    11    10    11   ar
    12    11    12   ar
    13    12    13   ar
    14    13    14   ar
    15     7     8    1



#	Name:			CHEMBL27769
#	Creating user name:	trannguyen
#	Creation time:		Wed Dec  7 14:36:25 2022


#	Modifying user name:	trannguyen
#	Modification time:	Wed Dec  7 14:36:25 2022

@<TRIPOS>MOLECULE
CHEMBL27769
 22 25 0 0 0
SMALL
GASTEIGER

@<TRIPOS>ATOM
      1 C           5.2286   30.5110    9.6245 C.3     1  UNL1        0.0024
      2 C           6.1773   31.6961    9.5908 C.3     1  UNL1        0.0247
      3 C           7.0421   31.4778    8.2651 C.3     1  UNL1        0.0023
      4 C           6.3248   31.9073    6.9455 C.3     1  UNL1        0.0001
      5 C           5.3545   33.1627    6.8953 C.3     1  UNL1        0.0000
      6 C           4.8873   33.4961    8.2958 C.3     1  UNL1        0.0001
      7 C           3.5099   32.8145    8.5645 C.3     1  UNL1        0.0000
      8 C           2.9759   31.7000    7.6240 C.3     1  UNL1        0.0004
      9 C           3.4458   31.6364    6.1416 C.3     1  UNL1        0.0073
     10 C           2.2525   31.1885    5.2693 C.3     1  UNL1        0.0645
     11 C           2.3096   31.9313    3.9754 C.2     1  UNL1        0.1506
     12 O           2.4673   31.3916    2.9213 O.2     1  UNL1       -0.2961
     13 C           2.1595   33.4380    4.1524 C.3     1  UNL1        0.0645
     14 C           2.9816   33.9365    5.4306 C.3     1  UNL1        0.0078
     15 C           4.1909   32.9623    5.7446 C.3     1  UNL1        0.0008
     16 C           5.0394   33.0210    4.4347 C.3     1  UNL1        0.0000
     17 C           5.9008   33.1972    9.4614 C.3     1  UNL1        0.0023
     18 C           7.4687   33.6834    9.7918 C.3     1  UNL1        0.0026
     19 C           8.0579   32.5332   10.7465 C.3     1  UNL1        0.0292
     20 C           6.7667   31.8421   11.0351 C.3     1  UNL1        0.1104
     21 O           6.7067   30.7325   11.8913 O.3     1  UNL1       -0.3845
     22 H           5.8218   30.8034   12.3164 H       1  UNL1        0.2103
@<TRIPOS>BOND
     1     2     3    1
     2     2    17    1
     3     2    20    1
     4     2     1    1
     5     3     4    1
     6     4     5    1
     7     5     6    1
     8     5    15    1
     9     6     7    1
    10     6    17    1
    11     7     8    1
    12     8     9    1
    13     9    10    1
    14     9    15    1
    15    10    11    1
    16    11    13    1
    17    11    12    2
    18    13    14    1
    19    14    15    1
    20    15    16    1
    21    17    18    1
    22    18    19    1
    23    19    20    1
    24    20    21    1
    25    21    22    1



#	Name:			CHEMBL28079
#	Creating user name:	trannguyen
#	Creation time:		Wed Dec  7 14:36:25 2022


#	Modifying user name:	trannguyen
#	Modification time:	Wed Dec  7 14:36:25 2022

@<TRIPOS>MOLECULE
CHEMBL28079
 22 24 0 0 0
SMALL
GASTEIGER

@<TRIPOS>ATOM
      1 C           3.6072   30.3915    9.5742 C.ar    1  UNL1        0.1475
      2 N           3.6830   29.5629   10.5810 N.ar    1  UNL1       -0.2063
      3 C           2.4778   28.9358   10.9096 C.ar    1  UNL1        0.2085
      4 N           2.2468   28.0106   11.8843 N.ar    1  UNL1       -0.1092
      5 N           0.9482   27.7082   11.8537 N.ar    1  UNL1       -0.0656
      6 N           0.3855   28.4461   10.8736 N.ar    1  UNL1       -0.2506
      7 H          -0.6108   28.3668   10.7040 H       1  UNL1        0.1909
      8 C           1.3189   29.2111   10.2590 C.ar    1  UNL1        0.1689
      9 C           1.2167   30.1215    9.1819 C.ar    1  UNL1        0.2789
     10 O           0.1841   30.4037    8.5954 O.2     1  UNL1       -0.2654
     11 N           2.4427   30.6716    8.8773 N.ar    1  UNL1       -0.3050
     12 H           2.4695   31.3020    8.0912 H       1  UNL1        0.1704
     13 C           4.8445   32.2632    8.3003 C.ar    1  UNL1        0.1414
     14 C           6.0807   32.8177    7.9298 C.ar    1  UNL1        0.0370
     15 C           7.2822   32.2980    8.4263 C.ar    1  UNL1        0.0031
     16 C           7.2694   31.2232    9.3057 C.ar    1  UNL1        0.0003
     17 C           6.0550   30.6453    9.6633 C.ar    1  UNL1        0.0060
     18 C           4.8384   31.1418    9.1574 C.ar    1  UNL1        0.0680
     19 O           3.6355   32.7385    7.8554 O.3     1  UNL1       -0.4754
     20 C           3.5410   33.1701    6.4906 C.3     1  UNL1        0.2054
     21 C           2.0935   31.3952    5.4043 C.3     1  UNL1        0.0040
     22 C           3.5030   31.9404    5.5818 C.3     1  UNL1        0.0473
@<TRIPOS>BOND
     1    21    22    1
     2    22    20    1
     3    20    19    1
     4    19    13    1
     5    13    14   ar
     6    13    18   ar
     7    14    15   ar
     8    15    16   ar
     9    16    17   ar
    10    17    18   ar
    11    18     1    1
    12     1     2   ar
    13     1    11   ar
    14     2     3   ar
    15     3     4   ar
    16     3     8   ar
    17     4     5   ar
    18     5     6   ar
    19     6     7    1
    20     6     8   ar
    21     8     9   ar
    22     9    10    2
    23     9    11   ar
    24    11    12    1



#	Name:			CHEMBL286398
#	Creating user name:	trannguyen
#	Creation time:		Wed Dec  7 14:36:25 2022


#	Modifying user name:	trannguyen
#	Modification time:	Wed Dec  7 14:36:25 2022

@<TRIPOS>MOLECULE
CHEMBL286398
 7 6 0 0 0
SMALL
GASTEIGER

@<TRIPOS>ATOM
      1 C           3.6907   27.8538   10.2261 C.3     1  UNL1        0.0344
      2 C           2.2641   27.4406   10.5465 C.3     1  UNL1        0.1398
      3 O           2.2597   26.5361   11.6584 O.3     1  UNL1       -0.3819
      4 H           2.7667   26.9471   12.3809 H       1  UNL1        0.2104
      5 C           1.3779   28.6400   10.8933 C.3     1  UNL1        0.1662
      6 O           0.0096   28.2356   10.9025 O.3     1  UNL1       -0.3795
      7 H           0.0022   27.3260   11.2612 H       1  UNL1        0.2105
@<TRIPOS>BOND
     1     1     2    1
     2     2     3    1
     3     2     5    1
     4     3     4    1
     5     5     6    1
     6     6     7    1



#	Name:			CHEMBL290106
#	Creating user name:	trannguyen
#	Creation time:		Wed Dec  7 14:36:25 2022


#	Modifying user name:	trannguyen
#	Modification time:	Wed Dec  7 14:36:25 2022

@<TRIPOS>MOLECULE
CHEMBL290106
 21 22 0 0 0
SMALL
GASTEIGER

@<TRIPOS>ATOM
      1 S           2.7629   32.8492    8.7217 S.3     1  UNL1       -0.0807
      2 O           1.2058   32.2537    6.1310 O.3     1  UNL1       -0.5041
      3 C           2.5668   32.3249    5.9634 C.ar    1  UNL1        0.1500
      4 C           3.1296   32.1314    4.6953 C.ar    1  UNL1        0.0926
      5 CL          2.1171   31.8198    3.3319 Cl      1  UNL1       -0.0790
      6 C           4.5091   32.1870    4.5147 C.ar    1  UNL1        0.0259
      7 C           5.3273   32.4340    5.6131 C.ar    1  UNL1        0.0592
      8 CL          7.0340   32.5022    5.4019 Cl      1  UNL1       -0.0822
      9 C           4.7803   32.6289    6.8814 C.ar    1  UNL1        0.0210
     10 C           3.3916   32.5869    7.0667 C.ar    1  UNL1        0.0649
     11 H           0.8102   32.0475    5.2636 H       1  UNL1        0.2923
     12 C           2.3945   31.1713    9.2246 C.ar    1  UNL1        0.0649
     13 C           3.4739   30.3200    9.4978 C.ar    1  UNL1        0.0210
     14 C           3.2485   29.0029    9.8982 C.ar    1  UNL1        0.0592
     15 CL          4.5864   27.9693   10.2196 Cl      1  UNL1       -0.0822
     16 C           1.9534   28.5137   10.0402 C.ar    1  UNL1        0.0259
     17 C           0.8769   29.3575    9.7791 C.ar    1  UNL1        0.0926
     18 CL         -0.7286   28.7485    9.9593 Cl      1  UNL1       -0.0790
     19 C           1.0889   30.6825    9.3768 C.ar    1  UNL1        0.1500
     20 O           0.0187   31.5085    9.1351 O.3     1  UNL1       -0.5041
     21 H          -0.7944   30.9988    9.3088 H       1  UNL1        0.2923
@<TRIPOS>BOND
     1     2     3    1
     2     2    11    1
     3     3     4   ar
     4     3    10   ar
     5     4     5    1
     6     4     6   ar
     7     6     7   ar
     8     7     8    1
     9     7     9   ar
    10     9    10   ar
    11    10     1    1
    12     1    12    1
    13    12    13   ar
    14    12    19   ar
    15    13    14   ar
    16    14    15    1
    17    14    16   ar
    18    16    17   ar
    19    17    18    1
    20    17    19   ar
    21    19    20    1
    22    20    21    1



#	Name:			CHEMBL291338
#	Creating user name:	trannguyen
#	Creation time:		Wed Dec  7 14:36:25 2022


#	Modifying user name:	trannguyen
#	Modification time:	Wed Dec  7 14:36:25 2022

@<TRIPOS>MOLECULE
CHEMBL291338
 22 23 0 0 0
SMALL
GASTEIGER

@<TRIPOS>ATOM
      1 O           5.6563   30.0255   10.8158 O.2     1  UNL1       -0.2697
      2 C           5.3134   30.5538    9.7680 C.2     1  UNL1        0.2525
      3 N           6.1361   31.2529    8.9002 N.am    1  UNL1       -0.2803
      4 H           5.6666   31.7363    8.1380 H       1  UNL1        0.1552
      5 C           3.8828   30.4178    9.3526 C.ar    1  UNL1        0.0890
      6 C           3.4761   31.1485    8.2222 C.ar    1  UNL1        0.0190
      7 C           2.1426   31.1390    7.8170 C.ar    1  UNL1        0.0589
      8 CL          1.6574   32.0688    6.4535 Cl      1  UNL1       -0.0822
      9 C           1.1953   30.3979    8.5159 C.ar    1  UNL1        0.0258
     10 C           1.5987   29.6415    9.6134 C.ar    1  UNL1        0.0922
     11 CL          0.4219   28.7155   10.4717 Cl      1  UNL1       -0.0791
     12 C           2.9361   29.6409   10.0332 C.ar    1  UNL1        0.1485
     13 O           3.3124   28.8789   11.1133 O.3     1  UNL1       -0.5045
     14 H           2.5435   28.3248   11.3613 H       1  UNL1        0.2922
     15 C           7.5266   31.4522    9.0225 C.ar    1  UNL1        0.0514
     16 C           8.4666   30.8095    8.2155 C.ar    1  UNL1        0.0156
     17 C           9.8353   31.0202    8.4055 C.ar    1  UNL1        0.0135
     18 C          10.2811   31.8840    9.4045 C.ar    1  UNL1        0.0683
     19 CL         11.9860   32.0763    9.5993 Cl      1  UNL1       -0.0814
     20 C           9.3483   32.5530   10.2024 C.ar    1  UNL1        0.0694
     21 CL          9.8236   33.6403   11.4601 Cl      1  UNL1       -0.0813
     22 C           7.9760   32.3445   10.0039 C.ar    1  UNL1        0.0269
@<TRIPOS>BOND
     1     1     2    2
     2     2     3   am
     3     2     5    1
     4     3    15    1
     5     3     4    1
     6    15    16   ar
     7    15    22   ar
     8    16    17   ar
     9    17    18   ar
    10    18    19    1
    11    18    20   ar
    12    20    21    1
    13    20    22   ar
    14     5     6   ar
    15     5    12   ar
    16     6     7   ar
    17     7     8    1
    18     7     9   ar
    19     9    10   ar
    20    10    11    1
    21    10    12   ar
    22    12    13    1
    23    13    14    1



#	Name:			CHEMBL293492
#	Creating user name:	trannguyen
#	Creation time:		Wed Dec  7 14:36:25 2022


#	Modifying user name:	trannguyen
#	Modification time:	Wed Dec  7 14:36:25 2022

@<TRIPOS>MOLECULE
CHEMBL293492
 10 10 0 0 0
SMALL
GASTEIGER

@<TRIPOS>ATOM
      1 C           2.5680   30.7346    8.8800 C.ar    1  UNL1        0.0001
      2 C           1.6687   30.7493    7.8048 C.ar    1  UNL1        0.0000
      3 C           1.9778   31.4316    6.6250 C.ar    1  UNL1        0.0000
      4 C           3.1946   32.0979    6.5029 C.ar    1  UNL1        0.0000
      5 C           4.1057   32.0754    7.5560 C.ar    1  UNL1        0.0000
      6 C           3.7973   31.3922    8.7356 C.ar    1  UNL1        0.0000
      7 C           2.1528   28.6466   10.1562 C.2     1  UNL1        0.0454
      8 C           2.2095   29.9843   10.0936 C.2     1  UNL1        0.0034
      9 O           2.1770   26.8494   11.6801 O.2     1  UNL1       -0.2831
     10 C           1.7900   27.9817   11.4223 C.2     1  UNL1        0.2343
@<TRIPOS>BOND
     1     9    10    2
     2    10     7    1
     3     7     8    2
     4     8     1    1
     5     1     2   ar
     6     1     6   ar
     7     2     3   ar
     8     3     4   ar
     9     4     5   ar
    10     5     6   ar



#	Name:			CHEMBL294199
#	Creating user name:	trannguyen
#	Creation time:		Wed Dec  7 14:36:25 2022


#	Modifying user name:	trannguyen
#	Modification time:	Wed Dec  7 14:36:25 2022

@<TRIPOS>MOLECULE
CHEMBL294199
 24 24 0 0 0
SMALL
GASTEIGER

@<TRIPOS>ATOM
      1 N           1.4056   29.5516    9.2110 N.am    1  UNL1       -0.3004
      2 C           1.9692   29.4342   10.4611 C.2     1  UNL1        0.2227
      3 O           2.0654   30.3722   11.2543 O.2     1  UNL1       -0.2751
      4 H           1.2236   28.7143    8.6721 H       1  UNL1        0.1497
      5 C           0.8822   30.8055    8.7162 C.3     1  UNL1        0.1164
      6 C           3.0303   31.8320    5.7261 C.ar    1  UNL1        0.1719
      7 C           2.1228   31.1514    6.5516 C.ar    1  UNL1        0.0374
      8 C           1.8981   31.5429    7.8812 C.ar    1  UNL1        0.0006
      9 C           2.6362   32.6136    8.3985 C.ar    1  UNL1        0.0007
     10 C           3.5421   33.3022    7.5870 C.ar    1  UNL1        0.0395
     11 C           3.7259   32.9247    6.2537 C.ar    1  UNL1        0.1677
     12 O           4.6039   33.6503    5.4964 O.3     1  UNL1       -0.5029
     13 H           4.8294   34.4704    5.9632 H       1  UNL1        0.2923
     14 C           2.3549   31.9516    3.4406 C.3     1  UNL1        0.2526
     15 O           3.1072   31.3114    4.4616 O.3     1  UNL1       -0.4684
     16 C           2.4655   28.0362   10.7621 C.3     1  UNL1        0.0851
     17 C           3.7692   27.6810   10.0422 C.3     1  UNL1        0.0099
     18 C           4.9146   28.6360   10.4027 C.3     1  UNL1        0.0052
     19 C           5.1404   29.7815    9.4086 C.3     1  UNL1        0.0257
     20 C           5.7651   30.9988   10.0273 C.2     1  UNL1       -0.0307
     21 C           6.4395   31.9340    9.3388 C.2     1  UNL1       -0.0310
     22 C           7.0818   33.1352    9.9916 C.3     1  UNL1        0.0217
     23 C           6.1100   34.3153   10.0233 C.3     1  UNL1        0.0047
     24 C           7.5634   32.8043   11.4037 C.3     1  UNL1        0.0047
@<TRIPOS>BOND
     1    14    15    1
     2    15     6    1
     3     6     7   ar
     4     6    11   ar
     5     7     8   ar
     6     8     5    1
     7     8     9   ar
     8     5     1    1
     9     1     2   am
    10     1     4    1
    11     2     3    2
    12     2    16    1
    13    16    17    1
    14    17    18    1
    15    18    19    1
    16    19    20    1
    17    20    21    2
    18    21    22    1
    19    22    23    1
    20    22    24    1
    21     9    10   ar
    22    10    11   ar
    23    11    12    1
    24    12    13    1



#	Name:			CHEMBL295416
#	Creating user name:	trannguyen
#	Creation time:		Wed Dec  7 14:36:25 2022


#	Modifying user name:	trannguyen
#	Modification time:	Wed Dec  7 14:36:25 2022

@<TRIPOS>MOLECULE
CHEMBL295416
 23 24 0 0 0
SMALL
GASTEIGER

@<TRIPOS>ATOM
      1 C           4.1284   32.0516    6.4179 C.ar    1  UNL1        0.1367
      2 C           3.1034   31.8754    5.5181 C.ar    1  UNL1        0.0652
      3 C           3.4462   31.9507    4.1933 C.ar    1  UNL1        0.1433
      4 CL          2.2472   31.8045    2.9739 Cl      1  UNL1       -0.0612
      5 N           4.6807   32.1724    3.7300 N.ar    1  UNL1       -0.2095
      6 C           5.6023   32.3593    4.6733 C.ar    1  UNL1        0.1924
      7 N           5.3836   32.3126    6.0005 N.ar    1  UNL1       -0.2061
      8 N           3.8976   32.0500    7.8031 N.pl3   1  UNL1       -0.2981
      9 H           4.1380   32.9523    8.2016 H       1  UNL1        0.1536
     10 C           1.3160   28.7491   10.5801 C.3     1  UNL1        0.0307
     11 C           2.6043   29.3651   10.0960 C.ar    1  UNL1       -0.0246
     12 C           3.8057   28.8937   10.6389 C.ar    1  UNL1       -0.0045
     13 C           5.0154   29.4636   10.2672 C.ar    1  UNL1        0.0009
     14 C           5.0397   30.5135    9.3481 C.ar    1  UNL1        0.0143
     15 C           3.8621   31.0062    8.7603 C.ar    1  UNL1        0.0450
     16 C           2.6276   30.4068    9.1282 C.ar    1  UNL1       -0.0123
     17 C           1.3199   30.8717    8.5313 C.3     1  UNL1        0.0320
     18 S           7.2284   32.7950    4.1165 S.3     1  UNL1       -0.0637
     19 C           6.9728   32.5230    2.3366 C.3     1  UNL1        0.1741
     20 C           7.7818   31.3564    1.7980 C.2     1  UNL1        0.3254
     21 O           8.9535   31.4618    1.4738 O.2     1  UNL1       -0.2493
     22 O           7.1247   30.1760    1.7013 O.3     1  UNL1       -0.4796
     23 H           6.1930   30.2562    1.9946 H       1  UNL1        0.2951
@<TRIPOS>BOND
     1    10    11    1
     2    11    12   ar
     3    11    16   ar
     4    12    13   ar
     5    13    14   ar
     6    14    15   ar
     7    15     8    1
     8    15    16   ar
     9     8     1    1
    10     8     9    1
    11     1     2   ar
    12     1     7   ar
    13     2     3   ar
    14     3     4    1
    15     3     5   ar
    16     5     6   ar
    17     6    18    1
    18     6     7   ar
    19    18    19    1
    20    19    20    1
    21    20    21    2
    22    20    22    1
    23    22    23    1
    24    16    17    1



#	Name:			CHEMBL3
#	Creating user name:	trannguyen
#	Creation time:		Wed Dec  7 14:36:25 2022


#	Modifying user name:	trannguyen
#	Modification time:	Wed Dec  7 14:36:25 2022

@<TRIPOS>MOLECULE
CHEMBL3
 12 13 0 0 0
SMALL
GASTEIGER

@<TRIPOS>ATOM
      1 C           1.6498   32.7315   10.3190 C.3     1  UNL1        0.0899
      2 N           1.7536   32.4241    8.9035 N.3     1  UNL1       -0.2691
      3 C           3.0826   32.6574    8.3554 C.3     1  UNL1        0.0724
      4 C           3.0028   32.0228    6.9773 C.3     1  UNL1        0.0191
      5 C           1.9054   30.9642    7.0733 C.3     1  UNL1        0.0220
      6 C           1.3315   31.0749    8.4941 C.3     1  UNL1        0.0817
      7 C           1.7351   29.9335    9.4078 C.ar    1  UNL1        0.0114
      8 C           3.0600   29.5644    9.6687 C.ar    1  UNL1        0.0002
      9 C           3.3330   28.5060   10.5326 C.ar    1  UNL1        0.0204
     10 C           2.2696   27.8410   11.1163 C.ar    1  UNL1        0.0989
     11 N           0.9782   28.1613   10.8980 N.ar    1  UNL1       -0.2426
     12 C           0.7446   29.1948   10.0562 C.ar    1  UNL1        0.0959
@<TRIPOS>BOND
     1     1     2    1
     2     2     3    1
     3     2     6    1
     4     3     4    1
     5     4     5    1
     6     5     6    1
     7     6     7    1
     8     7     8   ar
     9     7    12   ar
    10     8     9   ar
    11     9    10   ar
    12    10    11   ar
    13    11    12   ar



#	Name:			CHEMBL30
#	Creating user name:	trannguyen
#	Creation time:		Wed Dec  7 14:36:25 2022


#	Modifying user name:	trannguyen
#	Modification time:	Wed Dec  7 14:36:25 2022

@<TRIPOS>MOLECULE
CHEMBL30
 20 20 0 0 0
SMALL
GASTEIGER

@<TRIPOS>ATOM
      1 C           4.9137   30.9925    9.3848 C.3     1  UNL1        0.2316
      2 C           2.7800   29.9788    9.9827 C.cat   1  UNL1        0.3967
      3 N           3.4873   31.0225    9.7089 N.pl3   1  UNL1       -0.0959
      4 C           0.4206   30.1567    9.2411 C.3     1  UNL1        0.2169
      5 N           1.4426   30.1325   10.2669 N.pl3   1  UNL1       -0.2580
      6 H           1.2055   30.7270   11.0539 H       1  UNL1        0.2589
      7 N           3.2463   28.7070   10.0671 N.pl3   1  UNL1       -0.1776
      8 H           3.5856   28.2951    9.2220 H       1  UNL1        0.2780
      9 C           2.6030   27.7635   10.9239 C.1     1  UNL1        0.2551
     10 N           2.1341   26.9777   11.6292 N.1     1  UNL1       -0.1538
     11 C           5.3269   32.3672    8.8523 C.3     1  UNL1        0.1048
     12 S           6.3322   32.2214    7.3302 S.3     1  UNL1       -0.1300
     13 C           5.2179   33.0835    6.1652 C.3     1  UNL1        0.1044
     14 C           4.5638   32.1581    5.1947 C.ar    1  UNL1        0.0829
     15 N           3.2253   31.8537    5.3503 N.ar    1  UNL1       -0.2280
     16 C           2.9322   31.0215    4.3820 C.ar    1  UNL1        0.1745
     17 N           4.0085   30.7939    3.5786 N.ar    1  UNL1       -0.3385
     18 H           4.0183   30.2022    2.7594 H       1  UNL1        0.1672
     19 C           5.0677   31.5143    4.0747 C.ar    1  UNL1        0.0497
     20 C           6.3981   31.4837    3.4258 C.3     1  UNL1        0.0511
@<TRIPOS>BOND
     1     4     5    1
     2     5     2    1
     3     5     6    1
     4     2     3    2
     5     2     7    1
     6     3     1    1
     7     1    11    1
     8    11    12    1
     9    12    13    1
    10    13    14    1
    11    14    15   ar
    12    14    19   ar
    13    15    16   ar
    14    16    17   ar
    15    17    18    1
    16    17    19   ar
    17    19    20    1
    18     7     9    1
    19     7     8    1
    20     9    10    3



#	Name:			CHEMBL30008
#	Creating user name:	trannguyen
#	Creation time:		Wed Dec  7 14:36:25 2022


#	Modifying user name:	trannguyen
#	Modification time:	Wed Dec  7 14:36:25 2022

@<TRIPOS>MOLECULE
CHEMBL30008
 30 33 0 0 0
SMALL
GASTEIGER

@<TRIPOS>ATOM
      1 C           4.8475   31.8020    8.4501 C.3     1  UNL1        0.1031
      2 F           2.4268   32.5349    2.8034 F       1  UNL1       -0.2042
      3 C           3.1838   32.8494    3.8763 C.ar    1  UNL1        0.1401
      4 C           4.4169   32.3703    3.9937 C.ar    1  UNL1        0.0294
      5 C           4.8044   32.1864    5.3588 C.ar    1  UNL1       -0.0003
      6 C           4.3908   32.6113    6.7529 C.ar    1  UNL1       -0.0035
      7 C           3.2410   33.3513    6.4468 C.ar    1  UNL1       -0.0003
      8 C           2.6232   33.4137    5.0527 C.ar    1  UNL1        0.0294
      9 C           4.1446   30.4052    9.4698 C.ar    1  UNL1       -0.0035
     10 C           4.8069   29.1594    9.8144 C.ar    1  UNL1       -0.0003
     11 C           4.1179   27.9711   10.2142 C.ar    1  UNL1        0.0294
     12 C           2.7702   28.1205   10.5290 C.ar    1  UNL1        0.1401
     13 F           2.1570   27.0364   10.9557 F       1  UNL1       -0.2042
     14 C           2.1271   29.3410   10.4370 C.ar    1  UNL1        0.0294
     15 C           2.8092   30.4771    9.8815 C.ar    1  UNL1       -0.0003
     16 N           6.2755   31.7713    8.8671 N.3     1  UNL1       -0.2644
     17 C           6.5700   32.8773    9.7445 C.3     1  UNL1        0.0901
     18 C           8.0044   33.3564    9.6903 C.3     1  UNL1        0.0899
     19 N           8.6111   33.2844    8.3474 N.3     1  UNL1       -0.2665
     20 C           8.7093   31.9015    7.9450 C.3     1  UNL1        0.0899
     21 C           7.3668   31.1540    8.0414 C.3     1  UNL1        0.0901
     22 C           7.9639   34.0719    7.3016 C.3     1  UNL1        0.0989
     23 C           8.1610   33.9350    5.7242 C.2     1  UNL1       -0.0088
     24 C           8.2948   33.0533    4.5858 C.2     1  UNL1       -0.0032
     25 C           7.8480   32.9062    2.7967 C.ar    1  UNL1       -0.0003
     26 C           7.9133   31.7956    2.1232 C.ar    1  UNL1       -0.0000
     27 C           7.8916   31.8677    0.6632 C.ar    1  UNL1       -0.0000
     28 C           7.5177   32.9931   -0.1441 C.ar    1  UNL1       -0.0000
     29 C           7.2105   34.1305    0.4679 C.ar    1  UNL1       -0.0000
     30 C           7.5510   34.0891    1.8244 C.ar    1  UNL1       -0.0000
@<TRIPOS>BOND
     1     2     3    1
     2     3     4   ar
     3     3     8   ar
     4     4     5   ar
     5     5     6   ar
     6     6     1    1
     7     6     7   ar
     8     1     9    1
     9     1    16    1
    10     9    10   ar
    11     9    15   ar
    12    10    11   ar
    13    11    12   ar
    14    12    13    1
    15    12    14   ar
    16    14    15   ar
    17    16    17    1
    18    16    21    1
    19    17    18    1
    20    18    19    1
    21    19    22    1
    22    19    20    1
    23    22    23    1
    24    23    24    2
    25    24    25    1
    26    25    26   ar
    27    25    30   ar
    28    26    27   ar
    29    27    28   ar
    30    28    29   ar
    31    29    30   ar
    32    20    21    1
    33     7     8   ar



#	Name:			CHEMBL302795
#	Creating user name:	trannguyen
#	Creation time:		Wed Dec  7 14:36:25 2022


#	Modifying user name:	trannguyen
#	Modification time:	Wed Dec  7 14:36:25 2022

@<TRIPOS>MOLECULE
CHEMBL302795
 24 26 0 0 0
SMALL
GASTEIGER

@<TRIPOS>ATOM
      1 C           1.8993   31.3798    6.8428 C.3     1  UNL1        0.1394
      2 N           2.3630   32.0120    8.1103 N.pl3   1  UNL1       -0.1814
      3 C           3.7933   31.8188    8.3724 C.2     1  UNL1        0.1563
      4 C           4.2501   30.7499    9.0691 C.2     1  UNL1        0.1601
      5 O           5.5895   30.4754    9.2717 O.2     1  UNL1       -0.5036
      6 C           3.3457   29.8487    9.7168 C.ar    1  UNL1        0.0834
      7 S           3.7578   28.2852   10.2920 S.2     1  UNL1       -0.0820
      8 C           2.1695   27.9979   10.8794 C.ar    1  UNL1        0.0370
      9 C           1.3271   29.0635   10.6515 C.ar    1  UNL1        0.0278
     10 C           2.0189   30.1040    9.9871 C.ar    1  UNL1        0.1348
     11 S           1.3905   31.6124    9.4684 S.O2    1  UNL1        0.0774
     12 O           1.7005   32.5245   10.5439 O.2     1  UNL1       -0.1497
     13 O           0.0390   31.3353    9.0353 O.2     1  UNL1       -0.1497
     14 H           6.1263   31.1364    8.7771 H       1  UNL1        0.2923
     15 C           4.7421   32.8200    7.7712 C.2     1  UNL1        0.2685
     16 O           4.8416   33.9362    8.2676 O.2     1  UNL1       -0.2683
     17 N           5.3766   32.3002    6.6680 N.am    1  UNL1       -0.2647
     18 H           5.1160   31.3568    6.4098 H       1  UNL1        0.1566
     19 C           6.2945   32.9582    5.8480 C.ar    1  UNL1        0.1344
     20 C           7.6348   32.6080    5.9964 C.ar    1  UNL1        0.0345
     21 C           8.5936   33.2371    5.2059 C.ar    1  UNL1        0.0045
     22 C           8.1887   34.1925    4.2852 C.ar    1  UNL1        0.0208
     23 C           6.8372   34.4780    4.2001 C.ar    1  UNL1        0.1003
     24 N           5.8918   33.8853    4.9633 N.ar    1  UNL1       -0.2290
@<TRIPOS>BOND
     1     1     2    1
     2     2     3    1
     3     2    11    1
     4     3    15    1
     5     3     4    2
     6    15    16    2
     7    15    17   am
     8    17    19    1
     9    17    18    1
    10    19    20   ar
    11    19    24   ar
    12    20    21   ar
    13    21    22   ar
    14    22    23   ar
    15    23    24   ar
    16     4     5    1
    17     4     6    1
    18     5    14    1
    19     6     7   ar
    20     6    10   ar
    21     7     8   ar
    22     8     9   ar
    23     9    10   ar
    24    10    11    1
    25    11    12    2
    26    11    13    2



#	Name:			CHEMBL303515
#	Creating user name:	trannguyen
#	Creation time:		Wed Dec  7 14:36:25 2022


#	Modifying user name:	trannguyen
#	Modification time:	Wed Dec  7 14:36:25 2022

@<TRIPOS>MOLECULE
CHEMBL303515
 32 33 0 0 0
SMALL
GASTEIGER

@<TRIPOS>ATOM
      1 C           2.2321   31.4494    8.4851 C.3     1  UNL1        0.1730
      2 C           0.9755   30.5826    8.7177 C.3     1  UNL1        0.0483
      3 C           0.9481   29.8210   10.0505 C.3     1  UNL1        0.0253
      4 C          -0.1583   28.7638   10.0192 C.3     1  UNL1        0.0048
      5 C           2.2866   29.1833   10.2878 C.2     1  UNL1       -0.0305
      6 C           3.4259   29.8392   10.0023 C.2     1  UNL1       -0.0236
      7 C           4.6822   29.1550   10.0927 C.2     1  UNL1       -0.0091
      8 C           5.8493   29.7457    9.8384 C.2     1  UNL1       -0.0268
      9 C           6.0296   31.2064    9.5415 C.3     1  UNL1        0.0224
     10 C           6.8597   31.7831   10.6941 C.3     1  UNL1        0.0047
     11 C           4.7189   31.9760    9.1389 C.3     1  UNL1        0.0116
     12 C           3.3654   31.2931    9.5671 C.3     1  UNL1        0.0624
     13 O           2.7358   31.1619    7.1537 O.3     1  UNL1       -0.4519
     14 C           2.7170   32.1648    6.2281 C.2     1  UNL1        0.3163
     15 O           3.1122   33.3197    6.4283 O.2     1  UNL1       -0.2501
     16 C           2.0947   31.7192    4.9191 C.3     1  UNL1        0.0991
     17 C           1.6954   32.9702    4.1534 C.3     1  UNL1        0.0116
     18 C           4.4448   31.4746    3.9053 C.3     1  UNL1        0.0006
     19 C           3.0840   30.8255    4.1469 C.3     1  UNL1        0.0111
     20 C           4.7741   33.5054    9.4909 C.3     1  UNL1        0.0033
     21 C           3.4846   34.0906   10.0893 C.3     1  UNL1        0.0293
     22 C           3.0488   35.4818    9.6200 C.3     1  UNL1        0.1130
     23 O           2.8204   35.4810    8.1951 O.3     1  UNL1       -0.3844
     24 H           2.6818   34.5552    7.9263 H       1  UNL1        0.2103
     25 C           1.7945   36.0507   10.2865 C.3     1  UNL1        0.0588
     26 C           1.2984   37.4108    9.7501 C.3     1  UNL1        0.1185
     27 O           0.0124   37.2569    9.1425 O.3     1  UNL1       -0.3840
     28 H          -0.5283   38.0400    9.3465 H       1  UNL1        0.2104
     29 C           1.1761   38.4606   10.8492 C.3     1  UNL1        0.0710
     30 C           0.8835   39.8772   10.3973 C.2     1  UNL1        0.0528
     31 O          -0.1695   40.0395    9.7378 O.co2   1  UNL1       -0.5491
     32 O           1.7829   40.7367   10.6522 O.co2   1  UNL1       -0.5491
@<TRIPOS>UNITY_ATOM_ATTR
31 1
charge -1
@<TRIPOS>BOND
     1    18    19    1
     2    16    17    1
     3    16    14    1
     4    16    19    1
     5    14    15    2
     6    14    13    1
     7     1     2    1
     8     1    12    1
     9     1    13    1
    10     2     3    1
    11     3     4    1
    12     3     5    1
    13     5     6    2
    14     6     7    1
    15     6    12    1
    16     7     8    2
    17     8     9    1
    18     9    10    1
    19     9    11    1
    20    11    20    1
    21    11    12    1
    22    20    21    1
    23    21    22    1
    24    22    23    1
    25    22    25    1
    26    23    24    1
    27    25    26    1
    28    26    27    1
    29    26    29    1
    30    27    28    1
    31    29    30    1
    32    30    31   ar
    33    30    32   ar






#	Name:			CHEMBL3039597
#	Creating user name:	trannguyen
#	Creation time:		Wed Dec  7 14:36:25 2022


#	Modifying user name:	trannguyen
#	Modification time:	Wed Dec  7 14:36:25 2022

@<TRIPOS>MOLECULE
CHEMBL3039597
 44 46 0 0 0
SMALL
GASTEIGER

@<TRIPOS>ATOM
      1 C           5.3194   32.0809    4.8513 C.3     1  UNL1        0.1610
      2 C           5.1462   33.4870    4.2586 C.3     1  UNL1        0.0824
      3 N           6.0020   33.8194    3.1512 N.3     1  UNL1       -0.3202
      4 C           3.7671   33.8737    3.9369 C.3     1  UNL1        0.0361
      5 C           2.9334   33.4049    5.0903 C.3     1  UNL1        0.0824
      6 N           1.8263   34.2500    4.6625 N.3     1  UNL1       -0.3202
      7 C           2.6612   31.8873    5.1441 C.3     1  UNL1        0.1610
      8 C           4.0288   31.1799    4.8064 C.3     1  UNL1        0.1673
      9 O           3.9311   30.6691    3.4616 O.3     1  UNL1       -0.3795
     10 H           6.0088   34.8343    3.0874 H       1  UNL1        0.1189
     11 H           6.9455   33.5268    3.3952 H       1  UNL1        0.1189
     12 H           1.6695   34.8602    5.4824 H       1  UNL1        0.1189
     13 H           0.9774   33.6915    4.8684 H       1  UNL1        0.1189
     14 H           3.2659   31.1891    2.9886 H       1  UNL1        0.2105
     15 O           5.7491   32.2832    6.2135 O.3     1  UNL1       -0.3281
     16 C           7.5434   33.1646    8.6843 C.3     1  UNL1        0.1321
     17 C           7.7384   31.6631    8.3689 C.3     1  UNL1        0.0326
     18 C           8.3535   31.4269    6.9903 C.3     1  UNL1        0.0232
     19 C           8.1780   32.6749    6.1307 C.3     1  UNL1        0.1081
     20 N           8.5245   32.4408    4.7603 N.3     1  UNL1       -0.3182
     21 C           6.7946   33.2851    6.3425 C.3     1  UNL1        0.2498
     22 O           6.8660   33.8979    7.6401 O.3     1  UNL1       -0.3307
     23 H           8.8884   33.3188    4.3902 H       1  UNL1        0.1190
     24 H           9.3135   31.7977    4.7363 H       1  UNL1        0.1190
     25 C           8.8771   33.9084    9.0356 C.3     1  UNL1        0.0817
     26 C           8.6921   35.4067    9.3383 C.3     1  UNL1        0.0197
     27 C           9.5515   33.7040   11.3991 C.3     1  UNL1        0.0859
     28 N           9.7137   33.2188   10.0394 N.3     1  UNL1       -0.2954
     29 H           9.4949   32.2240    9.9910 H       1  UNL1        0.1233
     30 O           2.1020   31.3632    6.3963 O.3     1  UNL1       -0.3272
     31 C           1.8060   32.3360    7.4352 C.3     1  UNL1        0.2646
     32 O           0.4761   32.0046    7.9912 O.3     1  UNL1       -0.3261
     33 C           0.5254   31.5687    9.3740 C.3     1  UNL1        0.1729
     34 C           1.6619   30.5676    9.7291 C.3     1  UNL1        0.1312
     35 C           1.2691   29.1259    9.4292 C.3     1  UNL1        0.0334
     36 O           1.9189   30.5890   11.1419 O.3     1  UNL1       -0.3829
     37 C           2.9846   31.0046    9.0911 C.3     1  UNL1        0.1136
     38 C           2.7393   32.4123    8.6291 C.3     1  UNL1        0.1836
     39 O           4.0131   33.0163    8.4242 O.3     1  UNL1       -0.3783
     40 H           2.8921   30.4550   11.1308 H       1  UNL1        0.2104
     41 H           4.2895   33.4710    9.1143 H       1  UNL1        0.2106
     42 N           4.2289   30.9177    9.8620 N.3     1  UNL1       -0.2933
     43 C           4.9726   29.6488    9.8997 C.3     1  UNL1        0.0860
     44 H           4.8322   31.7120    9.7107 H       1  UNL1        0.1234
@<TRIPOS>BOND
     1    27    28    1
     2    28    25    1
     3    28    29    1
     4    25    26    1
     5    16    17    1
     6    16    22    1
     7    16    25    1
     8    17    18    1
     9    18    19    1
    10    19    21    1
    11    19    20    1
    12    20    23    1
    13    20    24    1
    14    21    22    1
    15    21    15    1
    16     1     2    1
    17     1     8    1
    18     1    15    1
    19     2     3    1
    20     2     4    1
    21     3    10    1
    22     3    11    1
    23     4     5    1
    24     5     7    1
    25     5     6    1
    26     6    12    1
    27     6    13    1
    28     7    30    1
    29     7     8    1
    30    30    31    1
    31    31    32    1
    32    31    38    1
    33    32    33    1
    34    33    34    1
    35    34    35    1
    36    34    36    1
    37    34    37    1
    38    36    40    1
    39    37    42    1
    40    37    38    1
    41    42    43    1
    42    42    44    1
    43    38    39    1
    44    39    41    1
    45     8     9    1
    46     9    14    1



#	Name:			CHEMBL3084803
#	Creating user name:	trannguyen
#	Creation time:		Wed Dec  7 14:36:25 2022


#	Modifying user name:	trannguyen
#	Modification time:	Wed Dec  7 14:36:25 2022

@<TRIPOS>MOLECULE
CHEMBL3084803
 38 39 0 0 0
SMALL
GASTEIGER

@<TRIPOS>ATOM
      1 C           7.0954   33.5876    8.0625 C.3     1  UNL1        0.1638
      2 C           6.7824   34.3984    9.3245 C.3     1  UNL1        0.1557
      3 O           6.6646   35.7990    9.0293 O.3     1  UNL1       -0.3805
      4 C           5.5134   33.8758   10.0327 C.3     1  UNL1        0.1106
      5 N           5.5180   34.5031   11.3891 N.3     1  UNL1       -0.3182
      6 C           5.3412   32.3168   10.1115 C.3     1  UNL1        0.1627
      7 C           6.1677   31.5033    9.0606 C.3     1  UNL1        0.1594
      8 O           6.3925   30.1316    9.4361 O.3     1  UNL1       -0.3801
      9 C           7.4922   32.1705    8.5748 C.3     1  UNL1        0.1341
     10 H           6.2514   36.1898    9.8251 H       1  UNL1        0.2105
     11 H           4.6848   34.1824   11.8848 H       1  UNL1        0.1190
     12 H           6.3009   34.1096   11.9193 H       1  UNL1        0.1190
     13 H           6.2872   30.0772   10.4078 H       1  UNL1        0.2105
     14 N           8.7043   32.2157    9.4940 N.am    1  UNL1       -0.2733
     15 C           8.3966   32.4835   10.9095 C.3     1  UNL1        0.1150
     16 C          10.0142   32.0945    9.0586 C.2     1  UNL1        0.2417
     17 O          10.3098   31.7680    7.8893 O.2     1  UNL1       -0.2734
     18 C          11.1825   32.2134   10.0590 C.3     1  UNL1        0.1517
     19 N          11.7232   33.5912    9.9736 N.3     1  UNL1       -0.3135
     20 H          10.9766   34.2311   10.2534 H       1  UNL1        0.1193
     21 H          11.9287   33.8221    9.0023 H       1  UNL1        0.1193
     22 C           6.3348   33.1102    5.8288 C.3     1  UNL1        0.1742
     23 O           5.9797   33.4819    7.1566 O.3     1  UNL1       -0.3493
     24 O           3.9004   32.0550   10.0143 O.3     1  UNL1       -0.3280
     25 C           3.5266   31.1482    8.9608 C.3     1  UNL1        0.2498
     26 O           3.1066   29.8923    9.4964 O.3     1  UNL1       -0.3307
     27 C           1.8603   29.9823   10.2073 C.3     1  UNL1        0.1319
     28 C           0.7474   30.3678    9.2310 C.3     1  UNL1        0.0326
     29 C           1.0447   31.7354    8.6239 C.3     1  UNL1        0.0232
     30 C           2.4455   31.7570    8.0042 C.3     1  UNL1        0.1081
     31 N           2.7681   33.1142    7.5297 N.3     1  UNL1       -0.3182
     32 H           3.0145   33.6865    8.3393 H       1  UNL1        0.1190
     33 H           1.9441   33.5404    7.1088 H       1  UNL1        0.1190
     34 C           1.5854   28.6346   10.9272 C.3     1  UNL1        0.0784
     35 C           2.4459   27.5178   10.3284 C.3     1  UNL1        0.0194
     36 N           0.1687   28.2500   10.8534 N.3     1  UNL1       -0.3203
     37 H           0.0503   27.3019   11.2069 H       1  UNL1        0.1189
     38 H          -0.0983   28.2217    9.8666 H       1  UNL1        0.1189
@<TRIPOS>BOND
     1    22    23    1
     2    23     1    1
     3     1     2    1
     4     1     9    1
     5     2     3    1
     6     2     4    1
     7     3    10    1
     8     4     5    1
     9     4     6    1
    10     5    11    1
    11     5    12    1
    12     6     7    1
    13     6    24    1
    14    24    25    1
    15    25    26    1
    16    25    30    1
    17    26    27    1
    18    27    28    1
    19    34    35    1
    20    34    36    1
    21    34    27    1
    22    36    37    1
    23    36    38    1
    24    28    29    1
    25    29    30    1
    26    30    31    1
    27    31    32    1
    28    31    33    1
    29     7     8    1
    30     7     9    1
    31     8    13    1
    32     9    14    1
    33    14    15    1
    34    14    16   am
    35    16    17    2
    36    16    18    1
    37    18    19    1
    38    19    20    1
    39    19    21    1



#	Name:			CHEMBL31
#	Creating user name:	trannguyen
#	Creation time:		Wed Dec  7 14:36:25 2022


#	Modifying user name:	trannguyen
#	Modification time:	Wed Dec  7 14:36:25 2022

@<TRIPOS>MOLECULE
CHEMBL31
 29 32 0 0 0
SMALL
GASTEIGER

@<TRIPOS>ATOM
      1 C           4.5968   32.3166    8.5067 C.ar    1  UNL1        0.1698
      2 C           5.9872   32.0825    8.7083 C.ar    1  UNL1        0.1116
      3 C           6.3304   30.9081    9.4074 C.ar    1  UNL1        0.1565
      4 F           7.6165   30.6245    9.6675 F       1  UNL1       -0.2028
      5 C           5.3807   30.0027    9.8700 C.ar    1  UNL1        0.0358
      6 C           4.0282   30.2923    9.7187 C.ar    1  UNL1        0.0603
      7 C           3.0196   29.3103   10.1911 C.ar    1  UNL1        0.2048
      8 O           3.3488   28.2388   10.6965 O.2     1  UNL1       -0.2862
      9 C           1.5871   29.6426   10.0420 C.ar    1  UNL1        0.1314
     10 C           1.3033   30.8802    9.6120 C.ar    1  UNL1        0.0856
     11 N           2.2243   31.8451    9.2237 N.ar    1  UNL1       -0.3252
     12 C           3.6112   31.5021    9.1343 C.ar    1  UNL1        0.0987
     13 N           6.9540   32.9728    8.2325 N.pl3   1  UNL1       -0.3006
     14 C           7.7635   32.6543    7.0422 C.3     1  UNL1        0.1080
     15 C           8.2654   33.9726    6.3970 C.3     1  UNL1        0.0903
     16 N           8.9904   34.8528    7.3386 N.3     1  UNL1       -0.2957
     17 C           8.1378   35.1103    8.5237 C.3     1  UNL1        0.0741
     18 C           8.8658   36.0379    9.4889 C.3     1  UNL1        0.0189
     19 C           7.6876   33.7930    9.2211 C.3     1  UNL1        0.1066
     20 H           9.2037   35.7349    6.8752 H       1  UNL1        0.1233
     21 C           0.4838   28.7252   10.4019 C.2     1  UNL1        0.3427
     22 O          -0.6267   28.7925    9.9181 O.2     1  UNL1       -0.2449
     23 O           0.8082   27.8133   11.3497 O.3     1  UNL1       -0.4770
     24 H           1.7628   27.8111   11.6002 H       1  UNL1        0.2954
     25 C           1.7881   33.2577    9.3782 C.3     1  UNL1        0.0857
     26 C           0.7544   33.6278   10.4277 C.3     1  UNL1        0.0245
     27 C           2.1486   34.1433   10.5494 C.3     1  UNL1        0.0245
     28 C           3.9243   33.0686    6.3330 C.3     1  UNL1        0.2526
     29 O           4.1256   33.3505    7.7194 O.3     1  UNL1       -0.4686
@<TRIPOS>BOND
     1    28    29    1
     2    29     1    1
     3     1     2   ar
     4     1    12   ar
     5     2    13    1
     6     2     3   ar
     7    13    14    1
     8    13    19    1
     9    14    15    1
    10    15    16    1
    11    16    17    1
    12    16    20    1
    13    17    18    1
    14    17    19    1
    15     3     4    1
    16     3     5   ar
    17     5     6   ar
    18     6     7   ar
    19     6    12   ar
    20     7     8    2
    21     7     9   ar
    22     9    21    1
    23     9    10   ar
    24    21    22    2
    25    21    23    1
    26    23    24    1
    27    10    11   ar
    28    11    25    1
    29    11    12   ar
    30    25    26    1
    31    25    27    1
    32    26    27    1



#	Name:			CHEMBL321768
#	Creating user name:	trannguyen
#	Creation time:		Wed Dec  7 14:36:25 2022


#	Modifying user name:	trannguyen
#	Modification time:	Wed Dec  7 14:36:25 2022

@<TRIPOS>MOLECULE
CHEMBL321768
 37 38 0 0 0
SMALL
GASTEIGER

@<TRIPOS>ATOM
      1 C           3.7830   32.2198    6.7338 C.ar    1  UNL1        0.0138
      2 C           5.1638   32.2654    6.4109 C.ar    1  UNL1        0.1255
      3 O           5.4697   32.4055    5.0905 O.3     1  UNL1       -0.5062
      4 C           6.2499   32.1794    7.3473 C.ar    1  UNL1        0.0098
      5 C           5.9231   32.3859    8.7179 C.ar    1  UNL1        0.0104
      6 C           4.5366   32.5527    9.0031 C.ar    1  UNL1        0.1341
      7 C           3.5324   32.0413    8.1134 C.ar    1  UNL1        0.0326
      8 H           5.7618   33.3304    5.0062 H       1  UNL1        0.2922
      9 C           2.5329   31.0345    8.6816 C.ar    1  UNL1        0.0028
     10 C           2.9912   29.9081    9.3986 C.ar    1  UNL1        0.0024
     11 C           2.1724   29.0480   10.1361 C.ar    1  UNL1        0.0296
     12 C           0.8127   29.1809   10.0117 C.ar    1  UNL1        0.1401
     13 F          -0.0068   28.3419   10.6547 F       1  UNL1       -0.2042
     14 C           0.2950   30.1488    9.1695 C.ar    1  UNL1        0.0296
     15 C           1.1480   31.0499    8.5096 C.ar    1  UNL1        0.0024
     16 C           2.5934   33.5866    4.8357 C.3     1  UNL1        0.0048
     17 C           2.6824   32.2522    5.6238 C.3     1  UNL1        0.0254
     18 C           2.7343   31.2118    4.4674 C.3     1  UNL1        0.0048
     19 C           7.6968   31.8833    6.8729 C.3     1  UNL1        0.0251
     20 C           8.6695   33.0537    7.1027 C.3     1  UNL1        0.0048
     21 C           8.3680   30.6181    7.4381 C.3     1  UNL1        0.0048
     22 C           6.9730   32.2592    9.8672 C.3     1  UNL1        0.0251
     23 C           7.3112   33.4788   10.7369 C.3     1  UNL1        0.0048
     24 C           6.6287   31.0926   10.8260 C.3     1  UNL1        0.0048
     25 O           4.2484   33.4575   10.0181 O.3     1  UNL1       -0.4732
     26 C           4.4541   34.8601    9.8534 C.3     1  UNL1        0.2344
     27 C           3.1439   35.5946    9.4890 C.3     1  UNL1        0.1564
     28 O           2.9737   35.3241    8.0951 O.3     1  UNL1       -0.3806
     29 H           3.2579   36.1035    7.5959 H       1  UNL1        0.2105
     30 C           1.8570   35.1916   10.2491 C.3     1  UNL1        0.0627
     31 C           0.7505   36.2488   10.2410 C.3     1  UNL1        0.1186
     32 O          -0.3419   35.6631   10.9418 O.3     1  UNL1       -0.3840
     33 H          -0.8823   36.4368   11.2490 H       1  UNL1        0.2104
     34 C           1.2171   37.5268   10.9498 C.3     1  UNL1        0.0710
     35 C           0.8848   38.7729   10.1346 C.2     1  UNL1        0.0528
     36 O           1.0439   39.8605   10.6906 O.co2   1  UNL1       -0.5491
     37 O           0.5033   38.5118    8.9196 O.co2   1  UNL1       -0.5491
@<TRIPOS>UNITY_ATOM_ATTR
36 1
charge -1
@<TRIPOS>BOND
     1    16    17    1
     2    17    18    1
     3    17     1    1
     4     1     2   ar
     5     1     7   ar
     6     2     3    1
     7     2     4   ar
     8     3     8    1
     9     4    19    1
    10     4     5   ar
    11    19    20    1
    12    19    21    1
    13     5    22    1
    14     5     6   ar
    15    22    23    1
    16    22    24    1
    17     6    25    1
    18     6     7   ar
    19    25    26    1
    20    26    27    1
    21    27    28    1
    22    27    30    1
    23    28    29    1
    24    30    31    1
    25    31    32    1
    26    31    34    1
    27    32    33    1
    28    34    35    1
    29    35    36   ar
    30    35    37   ar
    31     7     9    1
    32     9    10   ar
    33     9    15   ar
    34    10    11   ar
    35    11    12   ar
    36    12    13    1
    37    12    14   ar
    38    14    15   ar






#	Name:			CHEMBL323344
#	Creating user name:	trannguyen
#	Creation time:		Wed Dec  7 14:36:25 2022


#	Modifying user name:	trannguyen
#	Modification time:	Wed Dec  7 14:36:25 2022

@<TRIPOS>MOLECULE
CHEMBL323344
 36 37 0 0 0
SMALL
GASTEIGER

@<TRIPOS>ATOM
      1 C           5.7467   32.8677    5.7196 C.ar    1  UNL1        0.0214
      2 C           6.5532   33.4298    4.7620 C.ar    1  UNL1       -0.0050
      3 C           6.0300   33.6081    3.5047 C.ar    1  UNL1       -0.0223
      4 C           6.9742   34.0792    2.4608 C.3     1  UNL1        0.0310
      5 C           4.7071   33.2443    3.1918 C.ar    1  UNL1       -0.0055
      6 C           3.8371   32.6244    4.1027 C.ar    1  UNL1        0.0115
      7 C           2.5433   32.0734    3.5641 C.3     1  UNL1        0.0342
      8 C           4.2977   32.4354    5.4115 C.ar    1  UNL1        0.1311
      9 C           6.7088   32.4703    6.9712 C.3     1  UNL1        0.1241
     10 C           8.3667   31.6093    6.8019 C.3     1  UNL1        0.0148
     11 C           9.6831   32.3506    6.3185 C.3     1  UNL1        0.0009
     12 C          11.0166   32.0552    7.0866 C.3     1  UNL1        0.0000
     13 C          11.0176   31.6594    8.5658 C.3     1  UNL1        0.0000
     14 C           9.9983   30.5352    8.8349 C.3     1  UNL1        0.0000
     15 C           8.9626   30.2609    7.6491 C.3     1  UNL1        0.0009
     16 C           6.3807   32.9689    8.4013 C.2     1  UNL1        0.3205
     17 O           5.7292   32.2646    9.3775 O.2     1  UNL1       -0.2498
     18 O           6.7643   34.1694    8.4983 O.3     1  UNL1       -0.4555
     19 C           7.7740   34.7447    9.4090 C.3     1  UNL1        0.1361
     20 C           7.3355   35.7630   10.4798 C.3     1  UNL1        0.0437
     21 C           8.6682   35.4734    8.4307 C.3     1  UNL1        0.0437
     22 C           9.2841   33.9799   11.3422 C.3     1  UNL1        0.0037
     23 C           8.5599   33.5844   10.0609 C.3     1  UNL1        0.0401
     24 O           3.3154   31.7778    6.2447 O.3     1  UNL1       -0.4735
     25 C           2.3519   32.5340    7.0856 C.3     1  UNL1        0.2344
     26 C           1.7328   31.5030    7.8965 C.3     1  UNL1        0.1564
     27 O           1.4962   30.7884    6.6717 O.3     1  UNL1       -0.3806
     28 H           1.5740   29.8385    6.5412 H       1  UNL1        0.2105
     29 C           2.3779   31.1820    9.2780 C.3     1  UNL1        0.0627
     30 C           3.0207   29.8902    9.5623 C.3     1  UNL1        0.1186
     31 O           4.1672   30.0258   10.3667 O.3     1  UNL1       -0.3840
     32 H           3.8212   30.1838   11.2780 H       1  UNL1        0.2104
     33 C           1.9479   29.0054   10.2076 C.3     1  UNL1        0.0710
     34 C           2.2468   27.7147   10.9974 C.2     1  UNL1        0.0528
     35 O           1.4115   27.3927   11.8937 O.co2   1  UNL1       -0.5491
     36 O           3.3240   27.1485   10.6824 O.co2   1  UNL1       -0.5491
@<TRIPOS>UNITY_ATOM_ATTR
35 1
charge -1
@<TRIPOS>BOND
     1    22    23    1
     2    23    19    1
     3    19    20    1
     4    19    21    1
     5    19    18    1
     6    18    16    1
     7    16    17    2
     8    16     9    1
     9     9     1    1
    10     9    10    1
    11     1     2   ar
    12     1     8   ar
    13     2     3   ar
    14     3     4    1
    15     3     5   ar
    16     5     6   ar
    17     6     7    1
    18     6     8   ar
    19     8    24    1
    20    24    25    1
    21    25    26    1
    22    26    27    1
    23    26    29    1
    24    27    28    1
    25    29    30    1
    26    30    31    1
    27    30    33    1
    28    31    32    1
    29    33    34    1
    30    34    35   ar
    31    34    36   ar
    32    10    11    1
    33    10    15    1
    34    11    12    1
    35    12    13    1
    36    13    14    1
    37    14    15    1



#	Name:			CHEMBL323880
#	Creating user name:	trannguyen
#	Creation time:		Wed Dec  7 14:36:25 2022


#	Modifying user name:	trannguyen
#	Modification time:	Wed Dec  7 14:36:25 2022

@<TRIPOS>MOLECULE
CHEMBL323880
 33 34 0 0 0
SMALL
GASTEIGER

@<TRIPOS>ATOM
      1 C           6.5420   33.1014    8.0807 C.3     1  UNL1        0.1715
      2 C           6.9328   31.8079    8.8041 C.3     1  UNL1        0.0728
      3 C           8.0126   31.0544    8.0108 C.3     1  UNL1        0.1145
      4 O           9.2555   31.7563    8.0960 O.3     1  UNL1       -0.3843
      5 C           7.6706   30.8963    6.5293 C.3     1  UNL1        0.0338
      6 C           7.2136   32.2095    5.8546 C.3     1  UNL1        0.0276
      7 C           6.8918   31.9130    4.4132 C.2     1  UNL1       -0.0308
      8 C           5.6513   31.9441    3.9119 C.2     1  UNL1       -0.0310
      9 C           4.4335   32.2824    4.7351 C.3     1  UNL1        0.0218
     10 C           3.9876   33.6956    4.3318 C.3     1  UNL1        0.0047
     11 C           4.7045   32.1048    6.2680 C.3     1  UNL1        0.0079
     12 C           6.0334   32.8894    6.6291 C.3     1  UNL1        0.0446
     13 H           9.5801   31.6724    9.0095 H       1  UNL1        0.2103
     14 O           5.8185   34.1309    8.8153 O.3     1  UNL1       -0.4522
     15 C           6.2456   34.7741    9.8975 C.2     1  UNL1        0.3163
     16 O           5.5760   34.8847   10.9521 O.2     1  UNL1       -0.2501
     17 C           7.6780   35.2990    9.7882 C.3     1  UNL1        0.0991
     18 C           7.5996   36.7716    9.4134 C.3     1  UNL1        0.0116
     19 C           9.1353   33.6818   11.1980 C.3     1  UNL1        0.0006
     20 C           8.5157   35.0745   11.0665 C.3     1  UNL1        0.0111
     21 C           3.4507   32.4042    7.1120 C.3     1  UNL1        0.0029
     22 C           2.2333   31.4569    6.9253 C.3     1  UNL1        0.0293
     23 C           1.4628   31.1896    8.2405 C.3     1  UNL1        0.1130
     24 O           0.3022   32.0336    8.2301 O.3     1  UNL1       -0.3844
     25 H          -0.4705   31.4510    8.3317 H       1  UNL1        0.2103
     26 C           2.2255   31.4419    9.5525 C.3     1  UNL1        0.0588
     27 C           2.3475   30.2440   10.5072 C.3     1  UNL1        0.1185
     28 O           3.7225   29.8853   10.6998 O.3     1  UNL1       -0.3840
     29 H           4.2351   30.7108   10.7405 H       1  UNL1        0.2104
     30 C           1.6603   28.9649   10.0847 C.3     1  UNL1        0.0710
     31 C           2.0581   27.6668   10.7260 C.2     1  UNL1        0.0528
     32 O           2.8536   26.9173   10.0923 O.co2   1  UNL1       -0.5491
     33 O           1.9668   27.6096   11.9921 O.co2   1  UNL1       -0.5491
@<TRIPOS>UNITY_ATOM_ATTR
32 1
charge -1
@<TRIPOS>BOND
     1    19    20    1
     2    17    18    1
     3    17    15    1
     4    17    20    1
     5    15    16    2
     6    15    14    1
     7     1     2    1
     8     1    12    1
     9     1    14    1
    10     2     3    1
    11     3     5    1
    12     3     4    1
    13     4    13    1
    14     5     6    1
    15     6     7    1
    16     6    12    1
    17     7     8    2
    18     8     9    1
    19     9    10    1
    20     9    11    1
    21    11    21    1
    22    11    12    1
    23    21    22    1
    24    23    24    1
    25    23    26    1
    26    23    22    1
    27    24    25    1
    28    27    28    1
    29    27    30    1
    30    27    26    1
    31    28    29    1
    32    30    31    1
    33    31    32   ar
    34    31    33   ar



#	Name:			CHEMBL32749
#	Creating user name:	trannguyen
#	Creation time:		Wed Dec  7 14:36:25 2022


#	Modifying user name:	trannguyen
#	Modification time:	Wed Dec  7 14:36:25 2022

@<TRIPOS>MOLECULE
CHEMBL32749
 16 16 0 0 0
SMALL
GASTEIGER

@<TRIPOS>ATOM
      1 C           2.9700   29.2228   10.5867 C.ar    1  UNL1        0.1721
      2 C           2.7719   30.1487    9.5528 C.ar    1  UNL1        0.0400
      3 C           1.5142   30.3466    8.9637 C.ar    1  UNL1        0.0034
      4 C           0.4278   29.6210    9.4596 C.ar    1  UNL1        0.0033
      5 C           0.6065   28.6964   10.4939 C.ar    1  UNL1        0.0398
      6 C           1.8731   28.4933   11.0513 C.ar    1  UNL1        0.1677
      7 O           2.0003   27.5713   12.0520 O.3     1  UNL1       -0.5029
      8 H           1.1300   27.1911   12.2519 H       1  UNL1        0.2923
      9 C           5.2526   29.8255   10.2150 C.3     1  UNL1        0.2526
     10 O           4.2723   29.1711   11.0062 O.3     1  UNL1       -0.4684
     11 C           1.3099   31.3199    7.8790 C.2     1  UNL1        0.0067
     12 C           1.9979   31.2789    6.7263 C.2     1  UNL1        0.0817
     13 C           1.7673   32.2837    5.6728 C.2     1  UNL1        0.3382
     14 O           1.0244   32.1334    4.7166 O.2     1  UNL1       -0.2451
     15 O           2.4775   33.4092    5.8887 O.3     1  UNL1       -0.4771
     16 H           3.0198   33.4151    6.6993 H       1  UNL1        0.2954
@<TRIPOS>BOND
     1     9    10    1
     2    10     1    1
     3     1     2   ar
     4     1     6   ar
     5     2     3   ar
     6     3    11    1
     7     3     4   ar
     8    11    12    2
     9    12    13    1
    10    13    14    2
    11    13    15    1
    12    15    16    1
    13     4     5   ar
    14     5     6   ar
    15     6     7    1
    16     7     8    1



#	Name:			CHEMBL33
#	Creating user name:	trannguyen
#	Creation time:		Wed Dec  7 14:36:25 2022


#	Modifying user name:	trannguyen
#	Modification time:	Wed Dec  7 14:36:25 2022

@<TRIPOS>MOLECULE
CHEMBL33
 27 30 0 0 0
SMALL
GASTEIGER

@<TRIPOS>ATOM
      1 C           1.8278   33.3132   10.2165 C.3     1  UNL1        0.0284
      2 C           2.1246   32.4698    8.9746 C.3     1  UNL1        0.1292
      3 C           3.0023   33.2143    7.9642 C.3     1  UNL1        0.2278
      4 O           4.3059   33.4878    8.4823 O.3     1  UNL1       -0.4707
      5 C           4.9398   32.3422    8.9322 C.ar    1  UNL1        0.1697
      6 C           6.3611   32.3465    8.9284 C.ar    1  UNL1        0.1116
      7 C           6.9960   31.1726    9.3798 C.ar    1  UNL1        0.1565
      8 F           8.3342   31.0851    9.4232 F       1  UNL1       -0.2028
      9 C           6.2835   30.0636    9.8260 C.ar    1  UNL1        0.0358
     10 C           4.8910   30.0949    9.8232 C.ar    1  UNL1        0.0603
     11 C           4.1331   28.9168   10.3072 C.ar    1  UNL1        0.2048
     12 O           4.7064   27.9173   10.7373 O.2     1  UNL1       -0.2862
     13 C           2.6553   28.9627   10.2674 C.ar    1  UNL1        0.1314
     14 C           2.0943   30.0927    9.8114 C.ar    1  UNL1        0.0857
     15 N           2.7778   31.2111    9.3702 N.ar    1  UNL1       -0.3215
     16 C           4.1921   31.2265    9.3751 C.ar    1  UNL1        0.0988
     17 N           7.0589   33.4811    8.4590 N.pl3   1  UNL1       -0.3005
     18 C           7.9575   33.3121    7.2999 C.3     1  UNL1        0.1083
     19 C           8.4369   34.6940    6.7917 C.3     1  UNL1        0.0938
     20 N           9.0848   35.5472    7.8157 N.3     1  UNL1       -0.2686
     21 C          10.4097   35.0456    8.1744 C.3     1  UNL1        0.0897
     22 C           8.1948   35.6304    8.9978 C.3     1  UNL1        0.0938
     23 C           7.6699   34.2782    9.5461 C.3     1  UNL1        0.1083
     24 C           1.7879   27.8494   10.7053 C.2     1  UNL1        0.3427
     25 O           0.7468   28.0134   11.3229 O.2     1  UNL1       -0.2449
     26 O           2.2368   26.6218   10.3641 O.3     1  UNL1       -0.4770
     27 H           3.0948   26.6277    9.8733 H       1  UNL1        0.2954
@<TRIPOS>BOND
     1     2     3    1
     2     2    15    1
     3     2     1    1
     4     3     4    1
     5     4     5    1
     6     5     6   ar
     7     5    16   ar
     8     6    17    1
     9     6     7   ar
    10    17    18    1
    11    17    23    1
    12    18    19    1
    13    19    20    1
    14    20    21    1
    15    20    22    1
    16    22    23    1
    17     7     8    1
    18     7     9   ar
    19     9    10   ar
    20    10    11   ar
    21    10    16   ar
    22    11    12    2
    23    11    13   ar
    24    13    24    1
    25    13    14   ar
    26    24    25    2
    27    24    26    1
    28    26    27    1
    29    14    15   ar
    30    15    16   ar



#	Name:			CHEMBL3349544
#	Creating user name:	trannguyen
#	Creation time:		Wed Dec  7 14:36:25 2022


#	Modifying user name:	trannguyen
#	Modification time:	Wed Dec  7 14:36:25 2022

@<TRIPOS>MOLECULE
CHEMBL3349544
 31 33 0 0 0
SMALL
GASTEIGER

@<TRIPOS>ATOM
      1 C           3.8082   32.3703    7.4603 C.3     1  UNL1        0.1730
      2 C           2.6419   32.8910    8.3128 C.3     1  UNL1        0.0483
      3 C           2.1450   31.9577    9.4402 C.3     1  UNL1        0.0253
      4 C           0.6996   31.5012    9.2517 C.3     1  UNL1        0.0048
      5 C           3.0328   30.7911    9.7643 C.2     1  UNL1       -0.0305
      6 C           4.2672   30.6521    9.2636 C.2     1  UNL1       -0.0236
      7 C           5.2435   29.8251    9.9348 C.2     1  UNL1       -0.0091
      8 C           6.2471   30.4934   10.5253 C.2     1  UNL1       -0.0268
      9 C           6.2488   32.0125   10.4507 C.3     1  UNL1        0.0224
     10 C           7.4974   32.6017   11.1054 C.3     1  UNL1        0.0047
     11 C           5.9459   32.5220    8.9836 C.3     1  UNL1        0.0117
     12 C           4.8871   31.6051    8.2643 C.3     1  UNL1        0.0624
     13 O           3.2871   31.4441    6.4735 O.3     1  UNL1       -0.4519
     14 C           2.3844   31.8878    5.5591 C.2     1  UNL1        0.3158
     15 O           1.1751   31.9974    5.7657 O.2     1  UNL1       -0.2501
     16 C           3.0941   32.2747    4.2489 C.3     1  UNL1        0.0896
     17 C           3.2375   33.8056    4.1827 C.3     1  UNL1        0.0111
     18 C           2.2257   31.8208    3.0601 C.3     1  UNL1        0.0111
     19 C           5.6494   32.4914    3.8546 C.3     1  UNL1        0.0006
     20 C           4.4809   31.5873    4.2361 C.3     1  UNL1        0.0106
     21 C           7.2604   32.6279    8.1666 C.3     1  UNL1        0.0045
     22 C           7.5951   31.4455    7.2447 C.3     1  UNL1        0.0437
     23 C           9.0658   31.0152    7.4108 C.3     1  UNL1        0.1713
     24 C           9.5795   31.2843    8.8150 C.3     1  UNL1        0.0734
     25 C          11.0591   30.9504    8.8769 C.3     1  UNL1        0.1252
     26 O          11.2524   29.5403    8.7691 O.3     1  UNL1       -0.3838
     27 C          11.8479   31.7064    7.8270 C.3     1  UNL1        0.1388
     28 C          11.1919   31.7809    6.4759 C.2     1  UNL1        0.3194
     29 O          11.8468   32.0126    5.4642 O.2     1  UNL1       -0.2500
     30 O           9.8449   31.7276    6.4282 O.3     1  UNL1       -0.4521
     31 H          11.3163   29.2790    7.8342 H       1  UNL1        0.2104
@<TRIPOS>BOND
     1    19    20    1
     2    20    16    1
     3    16    17    1
     4    16    18    1
     5    16    14    1
     6    14    15    2
     7    14    13    1
     8     1     2    1
     9     1    12    1
    10     1    13    1
    11     2     3    1
    12     3     4    1
    13     3     5    1
    14     5     6    2
    15     6     7    1
    16     6    12    1
    17     7     8    2
    18     8     9    1
    19     9    10    1
    20     9    11    1
    21    11    12    1
    22    11    21    1
    23    21    22    1
    24    23    24    1
    25    23    30    1
    26    23    22    1
    27    24    25    1
    28    25    27    1
    29    25    26    1
    30    26    31    1
    31    27    28    1
    32    28    29    2
    33    28    30    1






#	Name:			CHEMBL3349824
#	Creating user name:	trannguyen
#	Creation time:		Wed Dec  7 14:36:25 2022


#	Modifying user name:	trannguyen
#	Modification time:	Wed Dec  7 14:36:25 2022

@<TRIPOS>MOLECULE
CHEMBL3349824
 33 35 0 0 0
SMALL
GASTEIGER

@<TRIPOS>ATOM
      1 C           4.2349   31.8788    8.5770 C.3     1  UNL1        0.1995
      2 C           3.4820   32.1971    7.2625 C.3     1  UNL1        0.0649
      3 C           2.0385   31.7356    7.3649 C.2     1  UNL1       -0.0234
      4 C           1.5943   30.8248    8.2448 C.2     1  UNL1       -0.0281
      5 C           2.5017   30.0798    9.1986 C.3     1  UNL1        0.0522
      6 C           2.0072   30.1924   10.6418 C.3     1  UNL1        0.0073
      7 C           4.0050   30.4189    9.0043 C.3     1  UNL1        0.1545
      8 O           4.7647   30.1461   10.1889 O.3     1  UNL1       -0.3804
      9 C           1.2474   32.1566    6.2314 C.2     1  UNL1       -0.0091
     10 C           1.7606   31.8713    5.0236 C.2     1  UNL1       -0.0268
     11 C           3.0459   31.0653    4.9518 C.3     1  UNL1        0.0224
     12 C           3.5124   30.8477    3.5136 C.3     1  UNL1        0.0047
     13 C           4.1417   31.5864    5.9632 C.3     1  UNL1        0.0117
     14 H           4.6143   30.8981   10.7912 H       1  UNL1        0.2105
     15 O           3.7561   32.7131    9.6744 O.3     1  UNL1       -0.4494
     16 C           3.9928   34.0521    9.6328 C.2     1  UNL1        0.3159
     17 O           4.9849   34.5889    9.1567 O.2     1  UNL1       -0.2501
     18 C           2.8138   34.7906   10.3257 C.3     1  UNL1        0.0896
     19 C           2.4385   36.0167    9.4708 C.3     1  UNL1        0.0111
     20 C           3.2422   35.2496   11.7312 C.3     1  UNL1        0.0111
     21 C           0.2400   34.4396   10.5662 C.3     1  UNL1        0.0006
     22 C           1.6153   33.8070   10.4183 C.3     1  UNL1        0.0106
     23 C           5.1387   32.5683    5.2919 C.3     1  UNL1        0.0045
     24 C           6.6173   32.1965    5.4585 C.3     1  UNL1        0.0437
     25 C           7.4500   32.4578    4.1995 C.3     1  UNL1        0.1713
     26 C           7.1697   33.8462    3.6419 C.3     1  UNL1        0.0734
     27 C           8.0313   34.0353    2.4106 C.3     1  UNL1        0.1252
     28 O           9.4070   34.0736    2.7931 O.3     1  UNL1       -0.3838
     29 C           7.8228   32.9285    1.3941 C.3     1  UNL1        0.1388
     30 C           7.4645   31.5680    1.9344 C.2     1  UNL1        0.3194
     31 O           7.3909   30.5972    1.1850 O.2     1  UNL1       -0.2500
     32 O           7.1080   31.4542    3.2298 O.3     1  UNL1       -0.4521
     33 H           9.5523   34.8921    3.3008 H       1  UNL1        0.2104
@<TRIPOS>BOND
     1    21    22    1
     2    22    18    1
     3    18    19    1
     4    18    20    1
     5    18    16    1
     6    16    17    2
     7    16    15    1
     8     1     2    1
     9     1     7    1
    10     1    15    1
    11     2     3    1
    12     2    13    1
    13     3     4    2
    14     3     9    1
    15     4     5    1
    16     5     6    1
    17     5     7    1
    18     7     8    1
    19     8    14    1
    20     9    10    2
    21    10    11    1
    22    11    12    1
    23    11    13    1
    24    13    23    1
    25    23    24    1
    26    25    26    1
    27    25    32    1
    28    25    24    1
    29    26    27    1
    30    27    29    1
    31    27    28    1
    32    28    33    1
    33    29    30    1
    34    30    31    2
    35    30    32    1






#	Name:			CHEMBL3349825
#	Creating user name:	trannguyen
#	Creation time:		Wed Dec  7 14:36:25 2022


#	Modifying user name:	trannguyen
#	Modification time:	Wed Dec  7 14:36:25 2022

@<TRIPOS>MOLECULE
CHEMBL3349825
 40 43 0 0 0
SMALL
GASTEIGER

@<TRIPOS>ATOM
      1 C           5.9009   32.9153    7.2209 C.3     1  UNL1        0.1756
      2 C           7.3247   32.3039    7.0327 C.3     1  UNL1        0.0625
      3 C           7.5001   31.0398    7.8376 C.2     1  UNL1       -0.0236
      4 C           6.7328   30.6976    8.8761 C.2     1  UNL1       -0.0304
      5 C           5.6073   31.5344    9.4171 C.3     1  UNL1        0.0279
      6 C           4.3648   30.6526    9.5738 C.3     1  UNL1        0.0049
      7 C           5.2955   32.8679    8.6658 C.3     1  UNL1        0.0756
      8 C           8.7336   30.3400    7.5537 C.2     1  UNL1       -0.0091
      9 C           9.8562   31.0704    7.6156 C.2     1  UNL1       -0.0268
     10 C           9.7435   32.5267    8.0262 C.3     1  UNL1        0.0224
     11 C          11.1141   33.2096    8.0555 C.3     1  UNL1        0.0047
     12 C           8.5727   33.2595    7.2568 C.3     1  UNL1        0.0117
     13 C           5.6377   34.1346    9.5086 C.3     1  UNL1        0.1364
     14 O           4.6411   34.2519   10.5381 O.3     1  UNL1       -0.3799
     15 H           5.0204   34.7727   11.2669 H       1  UNL1        0.2108
     16 C           7.0184   34.1393   10.1810 C.ar    1  UNL1        0.0044
     17 C           7.9573   35.1647    9.9596 C.ar    1  UNL1       -0.0020
     18 C           9.2221   35.1322   10.5698 C.ar    1  UNL1       -0.0002
     19 C           9.5775   34.0702   11.3980 C.ar    1  UNL1       -0.0000
     20 C           8.6572   33.0590   11.6469 C.ar    1  UNL1       -0.0002
     21 C           7.3896   33.1031   11.0584 C.ar    1  UNL1       -0.0020
     22 O           4.9465   32.1271    6.4175 O.3     1  UNL1       -0.4518
     23 C           4.1085   32.7645    5.5847 C.2     1  UNL1        0.3158
     24 O           4.2584   33.9372    5.2301 O.2     1  UNL1       -0.2501
     25 C           2.9167   31.9086    5.2080 C.3     1  UNL1        0.0896
     26 C           3.2716   30.9493    4.0526 C.3     1  UNL1        0.0111
     27 C           1.8170   32.8796    4.6929 C.3     1  UNL1        0.0111
     28 C           1.6897   31.9680    7.4874 C.3     1  UNL1        0.0006
     29 C           2.3449   31.1042    6.4124 C.3     1  UNL1        0.0106
     30 C           9.0466   33.9087    5.9254 C.3     1  UNL1        0.0045
     31 C           9.4810   32.9070    4.8399 C.3     1  UNL1        0.0437
     32 C           8.8376   33.1157    3.4680 C.3     1  UNL1        0.1713
     33 C           7.5010   33.8390    3.5632 C.3     1  UNL1        0.0734
     34 C           7.0333   34.1589    2.1520 C.3     1  UNL1        0.1252
     35 O           7.6062   35.4108    1.7594 O.3     1  UNL1       -0.3838
     36 C           7.4568   33.1075    1.1329 C.3     1  UNL1        0.1388
     37 C           7.8309   31.7851    1.7484 C.2     1  UNL1        0.3194
     38 O           7.4878   30.7154    1.2554 O.2     1  UNL1       -0.2500
     39 O           8.6300   31.8412    2.8417 O.3     1  UNL1       -0.4521
     40 H           7.3159   36.0896    2.3943 H       1  UNL1        0.2104
@<TRIPOS>BOND
     1    28    29    1
     2    29    25    1
     3    25    26    1
     4    25    27    1
     5    25    23    1
     6    23    24    2
     7    23    22    1
     8     1     2    1
     9     1     7    1
    10     1    22    1
    11     2     3    1
    12     2    12    1
    13     3     4    2
    14     3     8    1
    15     4     5    1
    16     5     6    1
    17     5     7    1
    18     7    13    1
    19    13    14    1
    20    13    16    1
    21    14    15    1
    22    16    17   ar
    23    16    21   ar
    24    17    18   ar
    25    18    19   ar
    26    19    20   ar
    27    20    21   ar
    28     8     9    2
    29     9    10    1
    30    10    11    1
    31    10    12    1
    32    12    30    1
    33    30    31    1
    34    32    33    1
    35    32    39    1
    36    32    31    1
    37    33    34    1
    38    34    36    1
    39    34    35    1
    40    35    40    1
    41    36    37    1
    42    37    38    2
    43    37    39    1






#	Name:			CHEMBL3349827
#	Creating user name:	trannguyen
#	Creation time:		Wed Dec  7 14:36:25 2022


#	Modifying user name:	trannguyen
#	Modification time:	Wed Dec  7 14:36:25 2022

@<TRIPOS>MOLECULE
CHEMBL3349827
 35 37 0 0 0
SMALL
GASTEIGER

@<TRIPOS>ATOM
      1 C           3.8830   32.7051    8.1620 C.3     1  UNL1        0.1752
      2 C           4.0310   32.7069    6.6220 C.3     1  UNL1        0.0625
      3 C           2.8232   32.0972    5.9552 C.2     1  UNL1       -0.0236
      4 C           1.9824   31.2452    6.5513 C.2     1  UNL1       -0.0304
      5 C           2.1542   30.7417    7.9606 C.3     1  UNL1        0.0275
      6 C           0.8157   30.7876    8.7102 C.3     1  UNL1        0.0049
      7 C           3.2892   31.4104    8.8015 C.3     1  UNL1        0.0713
      8 C           2.8050   32.3537    4.5322 C.2     1  UNL1       -0.0091
      9 C           3.9346   32.0657    3.8654 C.2     1  UNL1       -0.0268
     10 C           5.0658   31.3903    4.6222 C.3     1  UNL1        0.0224
     11 C           6.2765   31.0941    3.7349 C.3     1  UNL1        0.0047
     12 C           5.3482   32.0951    6.0059 C.3     1  UNL1        0.0117
     13 C           4.3702   30.3922    9.2383 C.3     1  UNL1        0.1143
     14 C           3.7983   29.1704    9.9684 C.3     1  UNL1        0.0319
     15 O           5.2849   31.0290   10.1334 O.3     1  UNL1       -0.3843
     16 H           4.8374   31.1528   10.9893 H       1  UNL1        0.2103
     17 O           2.9089   33.7509    8.5158 O.3     1  UNL1       -0.4519
     18 C           3.3212   34.7972    9.2864 C.2     1  UNL1        0.3158
     19 O           4.3541   35.4159    9.1057 O.2     1  UNL1       -0.2501
     20 C           2.3487   35.0655   10.4598 C.3     1  UNL1        0.0896
     21 C           3.2142   35.0317   11.7309 C.3     1  UNL1        0.0111
     22 C           1.2561   33.9842   10.5482 C.3     1  UNL1        0.0111
     23 C           0.1771   36.5160   10.3908 C.3     1  UNL1        0.0006
     24 C           1.7005   36.4621   10.2613 C.3     1  UNL1        0.0106
     25 C           6.4959   33.1416    5.9419 C.3     1  UNL1        0.0045
     26 C           7.5125   33.0851    7.0988 C.3     1  UNL1        0.0437
     27 C           7.1889   34.0699    8.2327 C.3     1  UNL1        0.1713
     28 C           8.3211   35.0703    8.4031 C.3     1  UNL1        0.0734
     29 C           8.0328   35.9534    9.5986 C.3     1  UNL1        0.1252
     30 O           6.9269   36.8136    9.3292 O.3     1  UNL1       -0.3838
     31 C           7.8085   35.1444   10.8594 C.3     1  UNL1        0.1388
     32 C           7.1249   33.8158   10.6811 C.2     1  UNL1        0.3194
     33 O           6.7721   33.1626   11.6610 O.2     1  UNL1       -0.2500
     34 O           6.9804   33.3111    9.4404 O.3     1  UNL1       -0.4521
     35 H           6.0922   36.3238    9.4280 H       1  UNL1        0.2104
@<TRIPOS>BOND
     1    23    24    1
     2    24    20    1
     3    20    21    1
     4    20    22    1
     5    20    18    1
     6    18    19    2
     7    18    17    1
     8     1     2    1
     9     1     7    1
    10     1    17    1
    11     2     3    1
    12     2    12    1
    13     3     4    2
    14     3     8    1
    15     4     5    1
    16     5     6    1
    17     5     7    1
    18     7    13    1
    19    13    15    1
    20    13    14    1
    21    15    16    1
    22     8     9    2
    23     9    10    1
    24    10    11    1
    25    10    12    1
    26    12    25    1
    27    25    26    1
    28    27    28    1
    29    27    34    1
    30    27    26    1
    31    28    29    1
    32    29    31    1
    33    29    30    1
    34    30    35    1
    35    31    32    1
    36    32    33    2
    37    32    34    1






#	Name:			CHEMBL3350037
#	Creating user name:	trannguyen
#	Creation time:		Wed Dec  7 14:36:25 2022


#	Modifying user name:	trannguyen
#	Modification time:	Wed Dec  7 14:36:25 2022

@<TRIPOS>MOLECULE
CHEMBL3350037
 86 90 0 0 0
SMALL
GASTEIGER

@<TRIPOS>ATOM
      1 CA         11.9235   34.0225   -5.4897 C.3     7  CYS7        0.1603
      2 CB         11.7597   33.0809   -4.2809 C.3     7  CYS7        0.0976
      3 SG         13.1934   32.9031   -3.1375 S.3     7  CYS7       -0.0798
      4 SG         13.9787   34.7889   -2.9032 S.3     2  CYS2       -0.0798
      5 CB         13.3035   35.4301   -1.3144 C.3     2  CYS2        0.0976
      6 CA         12.0129   36.2537   -1.4355 C.3     2  CYS2        0.1603
      7 C          12.2585   37.4939   -2.3336 C.2     2  CYS2        0.2416
      8 O          13.2587   38.1993   -2.2688 O.2     2  CYS2       -0.2733
      9 N          11.2273   37.7718   -3.1925 N.am    3  PHE3       -0.2967
     10 CA         11.2493   38.8333   -4.2096 C.3     3  PHE3        0.1530
     11 C           9.7445   39.0140   -4.4753 C.2     3  PHE3        0.2410
     12 O           9.0238   38.0243   -4.6166 O.2     3  PHE3       -0.2733
     13 N           9.2502   40.2976   -4.4828 N.am    4  TRP4       -0.2967
     14 CA          7.8289   40.5809   -4.7980 C.3     4  TRP4        0.1530
     15 C           7.6791   40.2495   -6.3045 C.2     4  TRP4        0.2410
     16 O           8.2518   40.9216   -7.1641 O.2     4  TRP4       -0.2733
     17 N           7.0876   39.0464   -6.6045 N.am    5  LYS5       -0.2970
     18 CA          7.6377   38.1727   -7.6323 C.3     5  LYS5        0.1486
     19 C           7.6239   36.7729   -6.9800 C.2     5  LYS5        0.2407
     20 O           6.8396   36.5433   -6.0582 O.2     5  LYS5       -0.2733
     21 N           8.4486   35.8043   -7.5009 N.am    6  THR6       -0.2951
     22 CA          8.3873   34.3682   -7.1358 C.3     6  THR6        0.1757
     23 C           9.4050   33.9051   -6.0549 C.2     6  THR6        0.2431
     24 O           9.1621   33.0138   -5.2258 O.2     6  THR6       -0.2732
     25 N          10.6910   34.3658   -6.2502 N.am    7  CYS7       -0.2962
     26 H          10.3428   37.2833   -3.0541 H       3  PHE3        0.1499
     27 H           9.9075   41.0364   -4.7106 H       4  TRP4        0.1499
     28 H           6.7028   38.5213   -5.8197 H       5  LYS5        0.1499
     29 H           9.1346   36.0878   -8.1879 H       6  THR6        0.1499
     30 H          10.8339   35.0286   -7.0020 H       7  CYS7        0.1499
     31 CB          6.9701   33.7251   -6.9843 C.3     6  THR6        0.1373
     32 CG2         6.9258   32.3159   -7.5732 C.3     6  THR6        0.0340
     33 OG1         5.8789   34.4651   -7.5175 O.3     6  THR6       -0.3823
     34 HG1         6.1008   34.7456   -8.4316 H       6  THR6        0.2104
     35 N          12.7202   32.3575   -7.1771 N.am    8  THR8       -0.3001
     36 C          13.0084   33.5122   -6.4757 C.2     7  CYS7        0.2413
     37 O          14.0897   34.0836   -6.5968 O.2     7  CYS7       -0.2733
     38 H          11.8816   31.8344   -6.9512 H       8  THR8        0.1496
     39 CA         13.7125   31.7124   -8.0748 C.3     8  THR8        0.1279
     40 CG2        12.1249   32.5819   -9.9404 C.3     8  THR8        0.0336
     41 CB         13.5604   32.2702   -9.5164 C.3     8  THR8        0.1309
     42 OG1        14.3692   33.4428   -9.6728 O.3     8  THR8       -0.3827
     43 HG1        14.1584   33.8249  -10.5441 H       8  THR8        0.2104
     44 C          13.6075   30.1734   -7.9810 C.3     8  THR8        0.1590
     45 O          14.8614   29.5145   -8.1268 O.3     8  THR8       -0.3802
     46 H          14.9095   29.1953   -9.0457 H       8  THR8        0.2105
     47 N          10.8438   35.4760   -1.8789 N.am    2  CYS2       -0.2965
     48 C           9.5936   35.5794   -1.3013 C.2     1  PHE1        0.2372
     49 O           9.3768   36.3116   -0.3325 O.2     1  PHE1       -0.2737
     50 H          10.9742   34.7837   -2.6039 H       2  CYS2        0.1499
     51 CA          8.4761   34.7828   -2.0383 C.3     1  PHE1        0.1327
     52 N           8.2414   35.4565   -3.3352 N.3     1  PHE1       -0.3148
     53 H1          7.6801   34.8309   -3.9197 H       1  PHE1        0.1192
     54 H2          7.6495   36.2717   -3.1684 H       1  PHE1        0.1192
     55 CB          7.2194   34.6815   -1.1480 C.3     1  PHE1        0.0512
     56 CG          7.2783   33.6815   -0.0092 C.ar    1  PHE1       -0.0203
     57 CD1         7.8633   32.4195   -0.1887 C.ar    1  PHE1       -0.0042
     58 CE1         7.9778   31.5268    0.8827 C.ar    1  PHE1       -0.0003
     59 CZ          7.4978   31.8776    2.1425 C.ar    1  PHE1       -0.0000
     60 CE2         6.9013   33.1217    2.3318 C.ar    1  PHE1       -0.0003
     61 CD2         6.7937   34.0185    1.2641 C.ar    1  PHE1       -0.0042
     62 CB         12.0107   38.3364   -5.4589 C.3     3  PHE3        0.0553
     63 CG         11.7511   39.0909   -6.7414 C.ar    3  PHE3       -0.0200
     64 CD1        11.9970   40.4524   -6.9017 C.ar    3  PHE3       -0.0042
     65 CE1        11.7040   41.0839   -8.1204 C.ar    3  PHE3       -0.0003
     66 CZ         11.1241   40.3732   -9.1725 C.ar    3  PHE3       -0.0000
     67 CE2        10.9035   39.0126   -9.0325 C.ar    3  PHE3       -0.0003
     68 CD2        11.2689   38.3877   -7.8422 C.ar    3  PHE3       -0.0042
     69 CB          6.9100   38.2842   -8.9659 C.3     5  LYS5        0.0290
     70 CG          5.4098   38.5555   -8.8000 C.3     5  LYS5        0.0036
     71 CD          5.0505   39.9948   -9.1553 C.3     5  LYS5        0.0169
     72 CE          4.2908   40.6673   -8.0117 C.3     5  LYS5        0.0651
     73 NZ          3.7633   39.6611   -7.1034 N.3     5  LYS5       -0.3211
     74 HZ1         3.1174   39.0493   -7.6017 H       5  LYS5        0.1189
     75 HZ2         3.2204   40.1107   -6.3676 H       5  LYS5        0.1189
     76 CB          6.8153   39.9506   -3.8153 C.3     4  TRP4        0.0569
     77 CG          6.6712   40.6335   -2.4760 C.ar    4  TRP4       -0.0017
     78 CD1         5.6843   41.5112   -2.0664 C.ar    4  TRP4        0.0681
     79 NE1         5.8989   41.8331   -0.7535 N.ar    4  TRP4       -0.3523
     80 HE1         5.3093   42.4366   -0.1977 H       4  TRP4        0.1660
     81 CE2         7.0202   41.1968   -0.2837 C.ar    4  TRP4        0.0563
     82 CZ2         7.5989   41.2267    0.9912 C.ar    4  TRP4        0.0170
     83 CH2         8.7482   40.4618    1.1998 C.ar    4  TRP4        0.0015
     84 CZ3         9.2959   39.7022    0.1693 C.ar    4  TRP4        0.0001
     85 CE3         8.7025   39.6834   -1.1014 C.ar    4  TRP4        0.0012
     86 CD2         7.5366   40.4439   -1.3392 C.ar    4  TRP4        0.0131
@<TRIPOS>BOND
     1    40    41    1
     2    41    42    1
     3    42    43    1
     4    39    44    1
     5    39    35    1
     6    39    41    1
     7    44    45    1
     8    45    46    1
     9    35    36   am
    10    35    38    1
    11    36    37    2
    12    36     1    1
    13     1     2    1
    14     1    25    1
    15     2     3    1
    16     3     4    1
    17     4     5    1
    18     5     6    1
    19     6     7    1
    20     6    47    1
    21    47    48   am
    22    47    50    1
    23    48    49    2
    24    51    52    1
    25    51    55    1
    26    51    48    1
    27    52    53    1
    28    52    54    1
    29    55    56    1
    30    56    57   ar
    31    56    61   ar
    32    57    58   ar
    33    58    59   ar
    34    59    60   ar
    35    60    61   ar
    36     7     8    2
    37     7     9   am
    38     9    10    1
    39     9    26    1
    40    10    62    1
    41    10    11    1
    42    62    63    1
    43    63    64   ar
    44    63    68   ar
    45    64    65   ar
    46    65    66   ar
    47    66    67   ar
    48    67    68   ar
    49    11    12    2
    50    11    13   am
    51    13    14    1
    52    13    27    1
    53    14    15    1
    54    14    76    1
    55    76    77    1
    56    77    78   ar
    57    77    86   ar
    58    78    79   ar
    59    79    80    1
    60    79    81   ar
    61    81    82   ar
    62    81    86   ar
    63    82    83   ar
    64    83    84   ar
    65    84    85   ar
    66    85    86   ar
    67    15    16    2
    68    15    17   am
    69    17    18    1
    70    17    28    1
    71    18    69    1
    72    18    19    1
    73    69    70    1
    74    70    71    1
    75    71    72    1
    76    72    73    1
    77    73    74    1
    78    73    75    1
    79    19    20    2
    80    19    21   am
    81    21    22    1
    82    21    29    1
    83    22    31    1
    84    22    23    1
    85    31    32    1
    86    31    33    1
    87    33    34    1
    88    23    24    2
    89    23    25   am
    90    25    30    1



#	Name:			CHEMBL34259
#	Creating user name:	trannguyen
#	Creation time:		Wed Dec  7 14:36:25 2022


#	Modifying user name:	trannguyen
#	Modification time:	Wed Dec  7 14:36:25 2022

@<TRIPOS>MOLECULE
CHEMBL34259
 40 42 0 0 0
SMALL
GASTEIGER

@<TRIPOS>ATOM
      1 C           6.3175   33.3884    4.5987 C.ar    0  UNK0        0.0482
      2 C           6.3656   32.9690    5.9395 C.ar    0  UNK0        0.0147
      3 C           5.2336   32.4630    6.6081 C.ar    0  UNK0        0.0058
      4 C           4.0028   32.3563    5.9540 C.ar    0  UNK0        0.0534
      5 C           3.9186   32.8112    4.6428 C.ar    0  UNK0        0.0058
      6 C           5.0546   33.3008    3.9845 C.ar    0  UNK0        0.0147
      7 C           2.8526   31.7172    6.6713 C.2     0  UNK0        0.2462
      8 O           1.7679   31.6073    6.1300 O.2     0  UNK0       -0.2701
      9 N           3.0687   31.3104    7.9781 N.am    1  GLU1       -0.2932
     10 H           3.9691   31.4209    8.4212 H       1  GLU1        0.1502
     11 CA          2.0320   30.6516    8.7879 C.3     1  GLU1        0.1720
     12 C           1.1573   31.7459    9.4229 C.2     1  GLU1        0.3318
     13 O           1.4039   32.3065   10.4681 O.2     1  GLU1       -0.2485
     14 OXT         0.0212   32.0085    8.7252 O.3     1  GLU1       -0.4791
     15 HXT        -0.0707   31.3797    7.9870 H       1  GLU1        0.2951
     16 CB          2.6323   29.7555    9.8773 C.3     1  GLU1        0.0427
     17 CG          1.6024   28.8909   10.6140 C.3     1  GLU1        0.1116
     18 CD          2.0995   27.5056   10.9006 C.2     1  GLU1        0.3139
     19 OE1         2.1324   26.9716   12.0069 O.2     1  GLU1       -0.2503
     20 OE2         2.6020   26.8726    9.8249 O.3     1  GLU1       -0.4802
     21 HE2         2.9066   26.0010   10.1687 H       1  GLU1        0.2951
     22 C           8.2919   34.8321    4.5387 C.3     0  UNK0        0.1125
     23 N           7.4706   33.7961    3.8913 N.pl3   0  UNK0       -0.3006
     24 C           8.2204   32.7418    3.1688 C.3     0  UNK0        0.1388
     25 C           7.9882   32.7018    1.6706 C.ar    0  UNK0        0.0982
     26 C           7.8225   31.5134    0.9820 C.ar    0  UNK0        0.1170
     27 N           7.6878   31.4565   -0.3695 N.ar    0  UNK0       -0.2223
     28 C           7.7412   32.6027   -1.0624 C.ar    0  UNK0        0.1857
     29 N           7.5815   32.5450   -2.3832 N.ar    0  UNK0       -0.1932
     30 C           7.6367   33.6851   -3.0639 C.ar    0  UNK0        0.2163
     31 N           7.4219   33.6327   -4.4243 N.pl3   0  UNK0       -0.3274
     32 N           7.9074   34.8736   -2.5344 N.ar    0  UNK0       -0.1978
     33 C           8.0606   34.9113   -1.2032 C.ar    0  UNK0        0.1491
     34 N           8.4346   36.1585   -0.6737 N.pl3   0  UNK0       -0.3413
     35 C           7.9588   33.8001   -0.3738 C.ar    0  UNK0        0.1478
     36 N           8.0628   33.8688    0.9897 N.ar    0  UNK0       -0.2405
     37 H           7.5977   32.7017   -4.7757 H       0  UNK0        0.1452
     38 H           7.8856   34.4010   -4.8891 H       0  UNK0        0.1452
     39 H           8.3414   36.8723   -1.3883 H       0  UNK0        0.1438
     40 H           7.9488   36.3556    0.1954 H       0  UNK0        0.1438
@<TRIPOS>BOND
     1    22    23    1
     2    23    24    1
     3    23     1    1
     4    24    25    1
     5    25    26   ar
     6    25    36   ar
     7    26    27   ar
     8    27    28   ar
     9    28    29   ar
    10    28    35   ar
    11    29    30   ar
    12    30    31    1
    13    30    32   ar
    14    31    37    1
    15    31    38    1
    16    32    33   ar
    17    33    34    1
    18    33    35   ar
    19    34    39    1
    20    34    40    1
    21    35    36   ar
    22     1     2   ar
    23     1     6   ar
    24     2     3   ar
    25     3     4   ar
    26     4     7    1
    27     4     5   ar
    28     7     8    2
    29     7     9   am
    30     9    11    1
    31     9    10    1
    32    11    16    1
    33    11    12    1
    34    16    17    1
    35    17    18    1
    36    18    19    2
    37    18    20    1
    38    20    21    1
    39    12    13    2
    40    12    14    1
    41    14    15    1
    42     5     6   ar



#	Name:			CHEMBL34431
#	Creating user name:	trannguyen
#	Creation time:		Wed Dec  7 14:36:25 2022


#	Modifying user name:	trannguyen
#	Modification time:	Wed Dec  7 14:36:25 2022

@<TRIPOS>MOLECULE
CHEMBL34431
 26 28 0 0 0
SMALL
GASTEIGER

@<TRIPOS>ATOM
      1 C           7.1542   31.7017    8.5013 C.3     1  UNL1        0.2059
      2 C           7.7763   32.4413    7.3257 C.3     1  UNL1        0.0569
      3 C           6.7248   33.0596    6.4110 C.3     1  UNL1        0.0891
      4 C           4.5538   31.3553    3.7573 C.3     1  UNL1        0.1148
      5 N           4.9399   32.1314    4.9338 N.am    1  UNL1       -0.2794
      6 C           6.3024   32.1382    5.2532 C.2     1  UNL1        0.2258
      7 O           7.1080   31.4671    4.6350 O.2     1  UNL1       -0.2749
      8 C           3.9161   32.6073    5.8900 C.3     1  UNL1        0.0754
      9 C           3.2723   33.9736    5.6089 C.3     1  UNL1        0.0198
     10 C           2.2864   33.9658    4.4418 C.3     1  UNL1        0.0017
     11 C           1.2516   32.8511    4.5615 C.3     1  UNL1        0.0001
     12 C           1.8395   31.4922    4.9210 C.3     1  UNL1        0.0017
     13 C           2.7961   31.5697    6.0990 C.3     1  UNL1        0.0198
     14 O           6.0270   32.4277    8.9975 O.3     1  UNL1       -0.4754
     15 C           4.9188   31.6820    9.2923 C.ar    1  UNL1        0.1386
     16 C           3.7229   32.3808    9.4349 C.ar    1  UNL1        0.0384
     17 C           2.5470   31.7043    9.7922 C.ar    1  UNL1        0.0223
     18 C           2.5397   30.3363   10.0460 C.ar    1  UNL1        0.0846
     19 N           1.4078   29.7107   10.4217 N.ar    1  UNL1       -0.2118
     20 C           1.4992   28.3921   10.6719 C.ar    1  UNL1        0.2216
     21 O           0.3290   27.8207   11.0502 O.3     1  UNL1       -0.4919
     22 C           2.6370   27.6252   10.5760 C.ar    1  UNL1        0.0575
     23 C           3.7945   28.2697   10.1794 C.ar    1  UNL1        0.0064
     24 C           3.7594   29.6414    9.9087 C.ar    1  UNL1        0.0209
     25 C           4.9269   30.3099    9.5273 C.ar    1  UNL1        0.0384
     26 H          -0.2515   28.6014   11.0111 H       1  UNL1        0.2937
@<TRIPOS>BOND
     1     4     5    1
     2     5     6   am
     3     5     8    1
     4     6     7    2
     5     6     3    1
     6     3     2    1
     7     2     1    1
     8     1    14    1
     9    14    15    1
    10    15    16   ar
    11    15    25   ar
    12    16    17   ar
    13    17    18   ar
    14    18    19   ar
    15    18    24   ar
    16    19    20   ar
    17    20    21    1
    18    20    22   ar
    19    21    26    1
    20    22    23   ar
    21    23    24   ar
    22    24    25   ar
    23     8     9    1
    24     8    13    1
    25     9    10    1
    26    10    11    1
    27    11    12    1
    28    12    13    1



#	Name:			CHEMBL3545252
#	Creating user name:	trannguyen
#	Creation time:		Wed Dec  7 14:36:25 2022


#	Modifying user name:	trannguyen
#	Modification time:	Wed Dec  7 14:36:25 2022

@<TRIPOS>MOLECULE
CHEMBL3545252
 63 68 0 0 0
SMALL
GASTEIGER

@<TRIPOS>ATOM
      1 C           9.1475   38.4229    6.0188 C.3     1  UNL1        0.1914
      2 C           8.6242   39.0596    4.6363 C.3     1  UNL1        0.1845
      3 O           7.7597   39.9585    5.4355 O.3     1  UNL1       -0.3487
      4 C           7.7258   38.8938    6.4231 C.3     1  UNL1        0.1567
      5 C           7.4484   39.2039    7.8583 C.3     1  UNL1        0.0629
      6 C           7.9717   38.0677    8.7899 C.3     1  UNL1        0.1198
      7 O           8.1948   38.7462   10.0368 O.3     1  UNL1       -0.3840
      8 C           9.2647   37.1104    8.3884 C.3     1  UNL1        0.0858
      9 C          10.4653   37.8787    8.9955 C.3     1  UNL1        0.0101
     10 C           9.3669   35.8854    9.5811 C.2     1  UNL1        0.1828
     11 O           8.7540   36.0746   10.6556 O.2     1  UNL1       -0.2931
     12 C          10.4466   34.4932    9.5976 C.3     1  UNL1        0.1857
     13 O          10.9679   34.6051   10.9648 O.3     1  UNL1       -0.3734
     14 C          11.7592   34.1790    8.6571 C.2     1  UNL1       -0.0137
     15 C          12.1419   35.4347    8.5494 C.2     1  UNL1       -0.0097
     16 C          13.3253   36.0739    9.2472 C.3     1  UNL1        0.0294
     17 C          11.2941   36.0126    7.4120 C.3     1  UNL1        0.1892
     18 C          12.0018   35.9192    5.9795 C.3     1  UNL1        0.0787
     19 C          11.2940   34.7340    5.5382 C.3     1  UNL1        0.1319
     20 O          11.7480   34.3002    4.2721 O.3     1  UNL1       -0.3828
     21 C           9.7786   35.7967    5.2723 C.3     1  UNL1        0.1976
     22 C           9.0592   36.9038    6.5518 C.3     1  UNL1        0.0929
     23 C          12.0009   33.6642    6.9513 C.3     1  UNL1        0.0433
     24 C          11.8387   32.1904    6.5932 C.3     1  UNL1        0.0066
     25 C          13.6511   33.5904    6.9901 C.3     1  UNL1        0.0066
     26 H           7.3740   38.7041   10.5518 H       1  UNL1        0.2104
     27 H          10.2184   34.9533   11.4988 H       1  UNL1        0.2113
     28 H          10.9360   34.1703    3.7412 H       1  UNL1        0.2104
     29 O          10.4366   39.0048    6.4941 O.3     1  UNL1       -0.4506
     30 C          11.2985   41.2177    5.8355 C.3     1  UNL1        0.1212
     31 C          11.2950   39.6868    5.6419 C.2     1  UNL1        0.3175
     32 O          11.9626   39.1827    4.7592 O.2     1  UNL1       -0.2501
     33 O          10.0402   34.7072    7.2571 O.3     1  UNL1       -0.4463
     34 C           8.6597   34.2911    7.0276 C.2     1  UNL1        0.3464
     35 O           7.6950   34.9242    7.4819 O.2     1  UNL1       -0.2473
     36 C           8.2905   32.8721    6.3757 C.3     1  UNL1        0.2321
     37 O           8.8783   32.5525    5.1425 O.3     1  UNL1       -0.3729
     38 H           8.4858   33.1279    4.4610 H       1  UNL1        0.2111
     39 C           6.7577   32.2760    6.3658 C.3     1  UNL1        0.1351
     40 C           6.2647   32.0500    7.7964 C.ar    1  UNL1       -0.0015
     41 C           4.9524   32.2767    8.0010 C.ar    1  UNL1       -0.0026
     42 C           4.2495   31.4309    8.8394 C.ar    1  UNL1       -0.0003
     43 C           4.7731   30.4827    9.6712 C.ar    1  UNL1       -0.0000
     44 C           6.1239   30.5076    9.7371 C.ar    1  UNL1       -0.0003
     45 C           6.8580   31.1759    8.7306 C.ar    1  UNL1       -0.0026
     46 N           6.3646   31.3470    5.3099 N.am    1  UNL1       -0.2655
     47 C           5.6041   31.7053    4.1955 C.2     1  UNL1        0.4017
     48 O           5.6907   31.1131    3.1365 O.2     1  UNL1       -0.2264
     49 H           6.5472   30.3358    5.3822 H       1  UNL1        0.1531
     50 O           4.6841   32.6901    4.4780 O.3     1  UNL1       -0.4419
     51 C           3.2205   32.4932    4.5780 C.3     1  UNL1        0.1378
     52 C           2.6307   33.6339    5.4293 C.3     1  UNL1        0.0437
     53 C           2.5886   32.5637    3.1532 C.3     1  UNL1        0.0437
     54 C           2.7390   31.2041    5.2522 C.3     1  UNL1        0.0437
     55 O           8.9844   35.3660    3.8639 O.3     1  UNL1       -0.4466
     56 C           7.7590   35.1204    3.2595 C.2     1  UNL1        0.3412
     57 O           6.5430   35.1605    4.0204 O.2     1  UNL1       -0.2449
     58 C           7.9826   34.4375    1.8153 C.ar    1  UNL1        0.0756
     59 C           7.5161   34.9899    0.5965 C.ar    1  UNL1        0.0064
     60 C           7.2930   34.2710   -0.5915 C.ar    1  UNL1        0.0002
     61 C           7.5544   32.9222   -0.6202 C.ar    1  UNL1        0.0000
     62 C           7.9732   32.2969    0.5419 C.ar    1  UNL1        0.0002
     63 C           8.1904   33.0241    1.7474 C.ar    1  UNL1        0.0064
@<TRIPOS>BOND
     1    30    31    1
     2    31    32    2
     3    31    29    1
     4     1    29    1
     5     1     2    1
     6     1     4    1
     7     1    22    1
     8     2     3    1
     9     3     4    1
    10     4     5    1
    11     5     6    1
    12     6     7    1
    13     6     8    1
    14     7    26    1
    15     8     9    1
    16     8    10    1
    17     8    22    1
    18    10    11    2
    19    10    12    1
    20    12    13    1
    21    12    14    1
    22    13    27    1
    23    14    15    2
    24    14    23    1
    25    15    16    1
    26    15    17    1
    27    17    18    1
    28    17    33    1
    29    33    34    1
    30    34    35    2
    31    36    37    1
    32    36    39    1
    33    36    34    1
    34    37    38    1
    35    39    46    1
    36    39    40    1
    37    46    47   am
    38    46    49    1
    39    47    48    2
    40    47    50    1
    41    50    51    1
    42    51    52    1
    43    51    53    1
    44    51    54    1
    45    40    41   ar
    46    40    45   ar
    47    41    42   ar
    48    42    43   ar
    49    43    44   ar
    50    44    45   ar
    51    18    19    1
    52    19    20    1
    53    19    21    1
    54    19    23    1
    55    20    28    1
    56    21    22    1
    57    21    55    1
    58    55    56    1
    59    56    57    2
    60    56    58    1
    61    58    59   ar
    62    58    63   ar
    63    59    60   ar
    64    60    61   ar
    65    61    62   ar
    66    62    63   ar
    67    23    24    1
    68    23    25    1



#	Name:			CHEMBL36715
#	Creating user name:	trannguyen
#	Creation time:		Wed Dec  7 14:36:25 2022


#	Modifying user name:	trannguyen
#	Modification time:	Wed Dec  7 14:36:25 2022

@<TRIPOS>MOLECULE
CHEMBL36715
 12 12 0 0 0
SMALL
GASTEIGER

@<TRIPOS>ATOM
      1 C           2.3455   28.3754    9.8841 C.3     1  UNL1        0.1788
      2 N           2.6753   29.7490    9.5280 N.am    1  UNL1       -0.2713
      3 C           4.0262   30.2423    9.5893 C.3     1  UNL1        0.0944
      4 C           3.8783   31.7079    9.2315 C.3     1  UNL1        0.0311
      5 C           2.6851   31.7334    8.2822 C.3     1  UNL1        0.0871
      6 C           1.8789   30.5331    8.7115 C.2     1  UNL1        0.2260
      7 O           0.7345   30.2767    8.3686 O.2     1  UNL1       -0.2749
      8 N           0.0982   28.4221   10.8700 N.am    1  UNL1       -0.3274
      9 C           1.4354   28.2931   11.1102 C.2     1  UNL1        0.2397
     10 O           1.8507   28.0339   12.2362 O.2     1  UNL1       -0.2735
     11 H          -0.5478   28.3657   11.6438 H       1  UNL1        0.1450
     12 H          -0.2552   28.6252    9.9364 H       1  UNL1        0.1450
@<TRIPOS>BOND
     1     8     9   am
     2     8    11    1
     3     8    12    1
     4     9    10    2
     5     9     1    1
     6     1     2    1
     7     2     3    1
     8     2     6   am
     9     3     4    1
    10     4     5    1
    11     5     6    1
    12     6     7    2



#	Name:			CHEMBL3704923
#	Creating user name:	trannguyen
#	Creation time:		Wed Dec  7 14:36:25 2022


#	Modifying user name:	trannguyen
#	Modification time:	Wed Dec  7 14:36:25 2022

@<TRIPOS>MOLECULE
CHEMBL3704923
 43 46 0 0 0
SMALL
GASTEIGER

@<TRIPOS>ATOM
      1 C           4.5771   32.3478    6.5846 C.3     1  UNL1        0.0000
      2 C           3.2824   32.1978    5.7231 C.3     1  UNL1        0.0000
      3 C           3.5160   31.8649    4.2408 C.3     1  UNL1        0.0000
      4 C           2.2263   32.0138    3.4211 C.3     1  UNL1        0.0000
      5 C           4.5768   32.7799    3.7055 C.2     1  UNL1        0.0000
      6 C           5.6679   33.0816    4.4333 C.2     1  UNL1        0.0000
      7 C           6.5636   34.0947    3.9537 C.2     1  UNL1        0.0000
      8 C           7.6975   34.4120    4.5765 C.2     1  UNL1        0.0000
      9 C           8.2339   33.7117    5.7944 C.3     1  UNL1        0.0000
     10 C           9.4921   32.9605    5.3504 C.3     1  UNL1        0.0000
     11 C           7.1561   32.9203    6.6185 C.3     1  UNL1        0.0000
     12 C           5.9250   32.3841    5.7664 C.3     1  UNL1        0.0000
     13 O           4.4222   33.5779    7.3485 O.3     1  UNL1        0.0000
     14 N           3.2997   34.7788    8.8213 N.am    1  UNL1        0.0000
     15 C           3.7048   33.5186    8.4987 C.2     1  UNL1        0.0000
     16 O           3.3976   32.4964    9.0898 O.2     1  UNL1        0.0000
     17 H           3.5926   35.4966    8.1752 H       1  UNL1        0.0000
     18 C           2.1584   35.0433    9.6717 C.3     1  UNL1        0.0000
     19 C           1.3838   39.3042    9.9390 C.ar    1  UNL1        0.0000
     20 C           1.9162   38.7679    8.7661 C.ar    1  UNL1        0.0000
     21 C           2.1461   37.3867    8.6623 C.ar    1  UNL1        0.0000
     22 C           1.8576   36.5287    9.7361 C.ar    1  UNL1        0.0000
     23 C           1.3122   37.0832   10.9042 C.ar    1  UNL1        0.0000
     24 C           1.0700   38.4571   11.0016 C.ar    1  UNL1        0.0000
     25 C           1.0262   41.8922   10.2049 C.1     1  UNL1        0.0000
     26 C           1.1633   40.7235   10.0739 C.1     1  UNL1        0.0000
     27 C           7.7348   31.8246    7.6049 C.3     1  UNL1        0.0000
     28 C           7.2856   32.0046    9.0720 C.3     1  UNL1        0.0000
     29 C           7.1412   33.4357    9.6482 C.3     1  UNL1        0.0000
     30 C           8.4095   34.1414   10.1119 C.3     1  UNL1        0.0000
     31 C           8.0608   35.6308   10.2277 C.3     1  UNL1        0.0000
     32 C           6.9811   35.7358   11.3141 C.3     1  UNL1        0.0000
     33 C           5.8956   34.6734   11.2863 C.2     1  UNL1        0.0000
     34 O           4.8423   34.8322   11.8992 O.2     1  UNL1        0.0000
     35 O           6.1981   33.4676   10.7310 O.3     1  UNL1        0.0000
     36 O           7.6111   36.2345    8.9937 O.3     1  UNL1        0.0000
     37 SI          8.3232   37.5947    8.2806 Si      1  UNL1        0.0000
     38 C           9.4284   37.1989    6.7942 C.3     1  UNL1        0.0000
     39 C           7.0674   38.8812    7.6395 C.3     1  UNL1        0.0000
     40 C           9.5113   38.6896    9.6073 C.3     1  UNL1        0.0000
     41 C          10.6897   37.8008   10.0749 C.3     1  UNL1        0.0000
     42 C          10.0406   39.9350    8.8655 C.3     1  UNL1        0.0000
     43 C           8.6824   39.1028   10.8360 C.3     1  UNL1        0.0000
@<TRIPOS>BOND
     1    25    26    3
     2    26    19    1
     3    19    20   ar
     4    19    24   ar
     5    20    21   ar
     6    21    22   ar
     7    22    18    1
     8    22    23   ar
     9    18    14    1
    10    14    15   am
    11    14    17    1
    12    15    16    2
    13    15    13    1
    14     1     2    1
    15     1    12    1
    16     1    13    1
    17     2     3    1
    18     3     4    1
    19     3     5    1
    20     5     6    2
    21     6     7    1
    22     6    12    1
    23     7     8    2
    24     8     9    1
    25     9    10    1
    26     9    11    1
    27    11    27    1
    28    11    12    1
    29    27    28    1
    30    29    30    1
    31    29    35    1
    32    29    28    1
    33    30    31    1
    34    31    32    1
    35    31    36    1
    36    36    37    1
    37    37    38    1
    38    37    39    1
    39    37    40    1
    40    40    41    1
    41    40    42    1
    42    40    43    1
    43    32    33    1
    44    33    34    2
    45    33    35    1
    46    23    24   ar






#	Name:			CHEMBL374478
#	Creating user name:	trannguyen
#	Creation time:		Wed Dec  7 14:36:25 2022


#	Modifying user name:	trannguyen
#	Modification time:	Wed Dec  7 14:36:25 2022

@<TRIPOS>MOLECULE
CHEMBL374478
 65 69 0 0 0
SMALL
GASTEIGER

@<TRIPOS>ATOM
      1 C           9.4279   36.7411    6.0080 C.3     1  UNL1        0.1438
      2 C           9.7523   36.2841    7.4355 C.2     1  UNL1        0.0431
      3 C           8.9454   36.2700    8.5127 C.2     1  UNL1        0.1742
      4 O           9.4007   35.8680    9.7414 O.2     1  UNL1       -0.4400
      5 C           8.4675   35.2936   10.6938 C.3     1  UNL1        0.3263
      6 C           8.1443   36.2956   11.7823 C.3     1  UNL1        0.1003
      7 O           7.2564   34.6812   10.1472 O.3     1  UNL1       -0.4429
      8 C           7.6962   33.4485    9.6838 C.ar    1  UNL1        0.1445
      9 C           7.1338   32.8447    8.5748 C.ar    1  UNL1        0.0461
     10 C           5.7480   33.2214    8.1524 C.3     1  UNL1        0.0374
     11 C           8.0164   32.0540    7.8278 C.ar    1  UNL1        0.1355
     12 O           7.6378   31.5599    6.5964 O.3     1  UNL1       -0.5056
     13 C           9.3857   31.8478    8.2167 C.ar    1  UNL1        0.0715
     14 C          10.4027   31.4217    7.3247 C.ar    1  UNL1        0.1500
     15 O          10.1260   31.0752    6.0198 O.3     1  UNL1       -0.5042
     16 C          11.7560   31.5330    7.6677 C.ar    1  UNL1        0.0893
     17 C          12.1150   31.7479    8.9970 C.ar    1  UNL1        0.0708
     18 C          11.1265   32.0346    9.9326 C.ar    1  UNL1        0.1367
     19 O          11.4147   32.1125   11.2672 O.3     1  UNL1       -0.5054
     20 C           9.7984   32.2511    9.5167 C.ar    1  UNL1        0.0456
     21 C           8.9014   33.0400   10.2323 C.ar    1  UNL1        0.0789
     22 C           9.1781   34.0651   11.2378 C.2     1  UNL1        0.2515
     23 O           9.7347   33.9349   12.2908 O.2     1  UNL1       -0.2836
     24 N          12.7104   31.6111    6.6155 N.am    1  UNL1       -0.2782
     25 C          13.4515   32.7830    6.5065 C.2     1  UNL1        0.2456
     26 O          13.3124   33.7514    7.2528 O.2     1  UNL1       -0.2702
     27 C          14.4441   32.8878    5.3896 C.2     1  UNL1        0.0318
     28 C          15.6324   33.7583    5.7057 C.3     1  UNL1        0.0358
     29 C          14.1422   32.3616    4.1918 C.2     1  UNL1       -0.0001
     30 C          14.7469   32.6053    2.9006 C.2     1  UNL1       -0.0047
     31 C          14.9807   33.8498    2.4510 C.2     1  UNL1       -0.0240
     32 C          14.8355   34.2128    0.9988 C.3     1  UNL1        0.0490
     33 C          16.0580   34.9055    0.4157 C.3     1  UNL1        0.0072
     34 C          13.4856   34.9884    0.8467 C.3     1  UNL1        0.1167
     35 O          13.1090   34.8684   -0.5332 O.3     1  UNL1       -0.3840
     36 C          13.3977   36.4893    1.3081 C.3     1  UNL1        0.0542
     37 C          13.7368   37.3989    0.0987 C.3     1  UNL1        0.0050
     38 C          11.9822   36.9443    1.9178 C.3     1  UNL1        0.1162
     39 O          11.9073   38.3863    1.8343 O.3     1  UNL1       -0.3843
     40 C          11.5172   36.6339    3.4129 C.3     1  UNL1        0.0672
     41 C          12.6162   36.0117    4.2649 C.3     1  UNL1        0.0062
     42 C          10.0953   35.9238    3.5412 C.3     1  UNL1        0.1736
     43 C           9.6087   35.5395    5.0077 C.3     1  UNL1        0.0717
     44 C           8.3204   34.6884    5.0041 C.3     1  UNL1        0.0066
     45 H           6.7472   31.8880    6.3807 H       1  UNL1        0.2922
     46 H           9.1468   31.0747    5.9460 H       1  UNL1        0.2923
     47 H          12.3890   32.1607   11.3817 H       1  UNL1        0.2922
     48 H          12.3875   31.2017    5.7480 H       1  UNL1        0.1553
     49 H          12.9954   33.9240   -0.7404 H       1  UNL1        0.2103
     50 H          12.6925   38.7491    2.2777 H       1  UNL1        0.2103
     51 C           7.8627   38.4600    5.2937 C.3     1  UNL1        0.1745
     52 O           8.1060   37.2959    6.0612 O.3     1  UNL1       -0.3490
     53 C          13.5410   31.6916    9.3767 C.2     1  UNL1        0.1217
     54 N          14.0051   30.6708   10.0223 N.2     1  UNL1       -0.1803
     55 N          15.3289   30.6963   10.3564 N.pl3   1  UNL1       -0.2299
     56 C          15.5265   30.5630   11.8230 C.3     1  UNL1        0.1283
     57 C          15.1804   29.1346   12.3118 C.3     1  UNL1        0.0956
     58 N          15.8681   28.0300   11.5995 N.3     1  UNL1       -0.2685
     59 C          17.2369   27.8584   12.0730 C.3     1  UNL1        0.0897
     60 C          15.8316   28.2681   10.1416 C.3     1  UNL1        0.0956
     61 C          16.2253   29.6981    9.7250 C.3     1  UNL1        0.1283
     62 O          10.1505   34.7373    2.7064 O.3     1  UNL1       -0.4521
     63 C           9.6336   34.8726    1.4418 C.2     1  UNL1        0.3174
     64 C           8.2779   35.5031    1.5239 C.3     1  UNL1        0.1212
     65 O          10.0798   34.3642    0.4252 O.2     1  UNL1       -0.2501
@<TRIPOS>BOND
     1    51    52    1
     2    52     1    1
     3     1     2    1
     4     1    43    1
     5     2     3    2
     6     3     4    1
     7     4     5    1
     8     5     7    1
     9     5    22    1
    10     5     6    1
    11     7     8    1
    12     8     9   ar
    13     8    21   ar
    14     9    11   ar
    15     9    10    1
    16    11    13   ar
    17    11    12    1
    18    12    45    1
    19    13    14   ar
    20    13    20   ar
    21    14    16   ar
    22    14    15    1
    23    15    46    1
    24    16    17   ar
    25    16    24    1
    26    17    18   ar
    27    17    53    1
    28    53    54    2
    29    54    55    1
    30    55    56    1
    31    55    61    1
    32    56    57    1
    33    57    58    1
    34    58    59    1
    35    58    60    1
    36    60    61    1
    37    18    20   ar
    38    18    19    1
    39    19    47    1
    40    20    21   ar
    41    21    22    1
    42    22    23    2
    43    24    25   am
    44    24    48    1
    45    25    27    1
    46    25    26    2
    47    27    29    2
    48    27    28    1
    49    29    30    1
    50    30    31    2
    51    31    32    1
    52    32    34    1
    53    32    33    1
    54    34    36    1
    55    34    35    1
    56    35    49    1
    57    36    38    1
    58    36    37    1
    59    38    40    1
    60    38    39    1
    61    39    50    1
    62    40    42    1
    63    40    41    1
    64    42    43    1
    65    42    62    1
    66    62    63    1
    67    63    64    1
    68    63    65    2
    69    43    44    1



#	Name:			CHEMBL376180
#	Creating user name:	trannguyen
#	Creation time:		Wed Dec  7 14:36:25 2022


#	Modifying user name:	trannguyen
#	Modification time:	Wed Dec  7 14:36:25 2022

@<TRIPOS>MOLECULE
CHEMBL376180
 40 42 0 0 0
SMALL
GASTEIGER

@<TRIPOS>ATOM
      1 C           5.7696   33.3725    4.4750 C.ar    0  UNK0        0.0449
      2 C           4.5295   33.0433    3.9181 C.ar    0  UNK0        0.0145
      3 C           3.5215   32.4536    4.6836 C.ar    0  UNK0        0.0058
      4 C           3.7559   32.1308    6.0223 C.ar    0  UNK0        0.0534
      5 C           5.0155   32.3773    6.5740 C.ar    0  UNK0        0.0058
      6 C           6.0115   32.9871    5.8014 C.ar    0  UNK0        0.0145
      7 C           2.7180   31.4523    6.8423 C.2     0  UNK0        0.2462
      8 O           1.6656   31.0798    6.3342 O.2     0  UNK0       -0.2701
      9 N           3.0094   31.2821    8.1816 N.am    1  GLU1       -0.2932
     10 H           3.9856   31.3222    8.4675 H       1  GLU1        0.1502
     11 CA          2.0601   30.6075    9.0955 C.3     1  GLU1        0.1720
     12 C           1.0700   31.6719    9.5952 C.2     1  GLU1        0.3318
     13 O           0.0190   31.9988    9.0447 O.2     1  GLU1       -0.2485
     14 OXT         1.4958   32.3020   10.7204 O.3     1  GLU1       -0.4791
     15 HXT         2.4203   32.0254   10.9038 H       1  GLU1        0.2951
     16 CB          2.8130   29.8702   10.2150 C.3     1  GLU1        0.0427
     17 CG          2.9823   28.3592   10.0305 C.3     1  GLU1        0.1116
     18 CD          2.3339   27.5608   11.1265 C.2     1  GLU1        0.3139
     19 OE1         2.0174   27.9641   12.2445 O.2     1  GLU1       -0.2503
     20 OE2         2.1132   26.2780   10.7734 O.3     1  GLU1       -0.4802
     21 HE2         1.7068   25.8877   11.5775 H       1  GLU1        0.2951
     22 N           6.8152   33.9235    3.7285 N.pl3   0  UNK0       -0.3278
     23 H           6.4584   34.4939    2.9591 H       0  UNK0        0.1472
     24 C           7.8865   33.0446    3.2512 C.3     0  UNK0        0.1354
     25 N           7.6807   33.0870   -4.4170 N.pl3   0  UNK0       -0.3274
     26 C           7.6900   33.3309   -3.0613 C.ar    0  UNK0        0.2163
     27 N           7.6712   34.5979   -2.6594 N.ar    0  UNK0       -0.1978
     28 C           7.7067   34.8056   -1.3344 C.ar    0  UNK0        0.1491
     29 N           7.6181   36.1502   -0.9356 N.pl3   0  UNK0       -0.3413
     30 C           7.7460   33.7865   -0.3875 C.ar    0  UNK0        0.1478
     31 N           7.8306   33.9988    0.9630 N.ar    0  UNK0       -0.2405
     32 C           7.8491   32.8930    1.7472 C.ar    0  UNK0        0.0980
     33 C           7.7659   31.6339    1.1859 C.ar    0  UNK0        0.1169
     34 N           7.7057   31.4318   -0.1484 N.ar    0  UNK0       -0.2223
     35 C           7.7090   32.5035   -0.9484 C.ar    0  UNK0        0.1857
     36 N           7.6813   32.2781   -2.2551 N.ar    0  UNK0       -0.1932
     37 H           7.2571   33.8576   -4.9139 H       0  UNK0        0.1452
     38 H           7.3189   32.1607   -4.6010 H       0  UNK0        0.1452
     39 H           7.7322   36.7484   -1.7477 H       0  UNK0        0.1438
     40 H           8.2495   36.3562   -0.1686 H       0  UNK0        0.1438
@<TRIPOS>BOND
     1    25    26    1
     2    25    37    1
     3    25    38    1
     4    26    27   ar
     5    26    36   ar
     6    27    28   ar
     7    28    29    1
     8    28    30   ar
     9    29    39    1
    10    29    40    1
    11    30    31   ar
    12    30    35   ar
    13    31    32   ar
    14    32    24    1
    15    32    33   ar
    16    24    22    1
    17    22     1    1
    18    22    23    1
    19     1     2   ar
    20     1     6   ar
    21     2     3   ar
    22     3     4   ar
    23     4     7    1
    24     4     5   ar
    25     7     8    2
    26     7     9   am
    27     9    11    1
    28     9    10    1
    29    11    16    1
    30    11    12    1
    31    16    17    1
    32    17    18    1
    33    18    19    2
    34    18    20    1
    35    20    21    1
    36    12    13    2
    37    12    14    1
    38    14    15    1
    39     5     6   ar
    40    33    34   ar
    41    34    35   ar
    42    35    36   ar



#	Name:			CHEMBL38
#	Creating user name:	trannguyen
#	Creation time:		Wed Dec  7 14:36:25 2022


#	Modifying user name:	trannguyen
#	Modification time:	Wed Dec  7 14:36:25 2022

@<TRIPOS>MOLECULE
CHEMBL38
 23 23 0 0 0
SMALL
GASTEIGER

@<TRIPOS>ATOM
      1 C           7.6380   31.9337   10.2134 C.2     1  UNL1       -0.0219
      2 C           7.2628   32.4093   11.5933 C.3     1  UNL1        0.0310
      3 C           6.9773   30.9766    9.5356 C.2     1  UNL1       -0.0043
      4 C           9.9757   32.7173   10.1937 C.2     1  UNL1       -0.0052
      5 C           8.7719   32.6064    9.6071 C.2     1  UNL1       -0.0046
      6 C          10.3435   35.6383   10.5669 C.3     1  UNL1        0.0260
      7 C          11.2505   34.7644    9.7306 C.2     1  UNL1       -0.0479
      8 C          11.1094   33.4205    9.5981 C.2     1  UNL1       -0.0307
      9 C          12.1292   32.5531    8.8227 C.3     1  UNL1        0.0183
     10 C          11.5076   32.1135    7.4777 C.3     1  UNL1        0.0043
     11 C          12.5660   31.2858    9.5956 C.3     1  UNL1        0.0043
     12 C          13.4336   33.3491    8.5471 C.3     1  UNL1        0.0044
     13 C          13.1537   34.7501    8.0326 C.3     1  UNL1        0.0047
     14 C          12.3663   35.5391    9.0678 C.3     1  UNL1        0.0217
     15 C           5.8340   30.2525   10.0428 C.2     1  UNL1       -0.0006
     16 C           4.6356   30.2761    9.4438 C.2     1  UNL1       -0.0041
     17 C           3.4277   29.5766    9.8699 C.2     1  UNL1       -0.0154
     18 C           2.0655   30.1602    9.5647 C.3     1  UNL1        0.0312
     19 C           3.5820   28.4085   10.5321 C.2     1  UNL1        0.0774
     20 C           2.4854   27.5632   11.0434 C.2     1  UNL1        0.3379
     21 O           1.8585   27.7529   12.0716 O.2     1  UNL1       -0.2451
     22 O           2.2374   26.5210   10.2198 O.3     1  UNL1       -0.4771
     23 H           2.8492   26.4257    9.4681 H       1  UNL1        0.2954
@<TRIPOS>BOND
     1     6     7    1
     2     7     8    2
     3     7    14    1
     4     8     4    1
     5     8     9    1
     6     4     5    2
     7     5     1    1
     8     1     2    1
     9     1     3    2
    10     3    15    1
    11    15    16    2
    12    16    17    1
    13    17    18    1
    14    17    19    2
    15    19    20    1
    16    20    21    2
    17    20    22    1
    18    22    23    1
    19     9    10    1
    20     9    11    1
    21     9    12    1
    22    12    13    1
    23    13    14    1



#	Name:			CHEMBL384467
#	Creating user name:	trannguyen
#	Creation time:		Wed Dec  7 14:36:25 2022


#	Modifying user name:	trannguyen
#	Modification time:	Wed Dec  7 14:36:25 2022

@<TRIPOS>MOLECULE
CHEMBL384467
 31 34 0 0 0
SMALL
GASTEIGER

@<TRIPOS>ATOM
      1 C           3.0511   33.6374    7.3274 C.3     1  UNL1        0.0028
      2 C           3.9561   32.5301    7.8607 C.3     1  UNL1        0.0315
      3 C           5.2109   32.2930    7.0174 C.3     1  UNL1        0.0029
      4 C           6.2680   31.6516    7.9576 C.3     1  UNL1        0.0054
      5 C           7.6132   32.4270    7.8993 C.3     1  UNL1        0.0334
      6 C           8.2792   32.1703    6.5264 C.3     1  UNL1        0.0071
      7 C           9.6314   32.8571    6.3870 C.3     1  UNL1        0.0226
      8 C          10.5386   32.4511    7.5176 C.2     1  UNL1       -0.0354
      9 C          11.7212   31.8621    7.2670 C.2     1  UNL1        0.0339
     10 C          12.6141   31.4081    8.3534 C.2     1  UNL1        0.1948
     11 O          13.7033   30.9085    8.1188 O.2     1  UNL1       -0.2866
     12 C          12.1333   31.5856    9.7370 C.2     1  UNL1        0.0378
     13 C          10.9571   32.1738    9.9903 C.2     1  UNL1       -0.0171
     14 C           9.9974   32.7206    8.9300 C.3     1  UNL1        0.0638
     15 C           9.9810   34.2543    9.1342 C.3     1  UNL1        0.0112
     16 C           8.5668   32.0403    9.0578 C.3     1  UNL1        0.1644
     17 F           8.7615   30.6766    8.9635 F       1  UNL1       -0.2369
     18 C           7.8720   32.2801   10.4173 C.3     1  UNL1        0.1409
     19 O           7.6372   33.6554   10.6806 O.3     1  UNL1       -0.3817
     20 C           6.5514   31.5220   10.5518 C.3     1  UNL1        0.0347
     21 C           5.5774   31.5381    9.3493 C.3     1  UNL1        0.0315
     22 C           4.8727   30.1351    9.4228 C.3     1  UNL1        0.0028
     23 C           4.4775   32.6705    9.3195 C.3     1  UNL1        0.1413
     24 O           3.3723   32.3408   10.1610 O.3     1  UNL1       -0.3797
     25 H           7.8795   33.8208   11.6109 H       1  UNL1        0.2104
     26 H           3.5495   32.6307   11.0747 H       1  UNL1        0.2108
     27 C           4.9937   34.1206    9.5982 C.2     1  UNL1        0.2038
     28 O           5.8604   34.6693    8.9110 O.2     1  UNL1       -0.2910
     29 C           4.3917   34.8755   10.7874 C.3     1  UNL1        0.2044
     30 O           5.2383   34.9598   11.9157 O.3     1  UNL1       -0.3749
     31 H           5.2788   34.0658   12.3036 H       1  UNL1        0.2110
@<TRIPOS>BOND
     1     2     3    1
     2     2    23    1
     3     2     1    1
     4     3     4    1
     5     4     5    1
     6     4    21    1
     7     5     6    1
     8     5    16    1
     9     6     7    1
    10     7     8    1
    11     8     9    2
    12     8    14    1
    13     9    10    1
    14    10    12    1
    15    10    11    2
    16    12    13    2
    17    13    14    1
    18    14    16    1
    19    14    15    1
    20    16    18    1
    21    16    17    1
    22    18    20    1
    23    18    19    1
    24    19    25    1
    25    20    21    1
    26    21    23    1
    27    21    22    1
    28    23    27    1
    29    23    24    1
    30    24    26    1
    31    27    28    2
    32    27    29    1
    33    29    30    1
    34    30    31    1



#	Name:			CHEMBL386630
#	Creating user name:	trannguyen
#	Creation time:		Wed Dec  7 14:36:25 2022


#	Modifying user name:	trannguyen
#	Modification time:	Wed Dec  7 14:36:25 2022

@<TRIPOS>MOLECULE
CHEMBL386630
 22 25 0 0 0
SMALL
GASTEIGER

@<TRIPOS>ATOM
      1 C           5.4237   32.0992    6.0868 C.3     1  UNL1        0.0024
      2 C           4.1620   32.6904    5.4837 C.3     1  UNL1        0.0247
      3 C           3.2151   31.4222    5.2376 C.3     1  UNL1        0.0023
      4 C           2.4661   30.9221    6.5046 C.3     1  UNL1        0.0004
      5 C           1.9496   31.9508    7.6270 C.3     1  UNL1        0.0035
      6 C           2.7093   33.2525    7.5096 C.3     1  UNL1        0.0007
      7 C           3.9390   33.2375    8.4709 C.3     1  UNL1        0.0044
      8 C           4.3862   31.8837    9.0912 C.3     1  UNL1        0.0221
      9 C           3.3734   30.7436    9.1117 C.2     1  UNL1       -0.0420
     10 C           3.7159   29.4711    9.3604 C.2     1  UNL1        0.0289
     11 C           2.5976   28.8097   10.0767 C.2     1  UNL1        0.1725
     12 O           2.2486   27.7040    9.8178 O.2     1  UNL1       -0.2914
     13 C           1.9723   29.7310   11.1671 C.3     1  UNL1        0.0694
     14 C           1.8063   31.2655   10.6126 C.3     1  UNL1        0.0118
     15 C           1.8940   31.1700    9.0442 C.3     1  UNL1        0.0157
     16 C           0.5310   30.4004    8.8139 C.3     1  UNL1        0.0041
     17 C           3.1229   33.6612    6.0486 C.3     1  UNL1        0.0023
     18 C           2.3115   33.8781    4.5847 C.3     1  UNL1        0.0026
     19 C           3.4467   33.6596    3.4603 C.3     1  UNL1        0.0292
     20 C           4.6189   33.7035    4.3802 C.3     1  UNL1        0.1104
     21 O           5.9409   33.6254    3.9198 O.3     1  UNL1       -0.3845
     22 H           6.4492   34.1742    4.5607 H       1  UNL1        0.2103
@<TRIPOS>BOND
     1     2     3    1
     2     2    17    1
     3     2    20    1
     4     2     1    1
     5     3     4    1
     6     4     5    1
     7     5     6    1
     8     5    15    1
     9     6     7    1
    10     6    17    1
    11     7     8    1
    12     8     9    1
    13     9    10    2
    14     9    15    1
    15    10    11    1
    16    11    13    1
    17    11    12    2
    18    13    14    1
    19    14    15    1
    20    15    16    1
    21    17    18    1
    22    18    19    1
    23    19    20    1
    24    20    21    1
    25    21    22    1



#	Name:			CHEMBL38737
#	Creating user name:	trannguyen
#	Creation time:		Wed Dec  7 14:36:25 2022


#	Modifying user name:	trannguyen
#	Modification time:	Wed Dec  7 14:36:25 2022

@<TRIPOS>MOLECULE
CHEMBL38737
 6 5 0 0 0
SMALL
GASTEIGER

@<TRIPOS>ATOM
      1 C           3.8683   27.9312   10.1832 C.3     1  UNL1        0.0580
      2 C           2.4949   27.6471   10.7121 C.2     1  UNL1        0.0714
      3 N           2.2040   26.6106   11.4191 N.2     1  UNL1       -0.2969
      4 S           1.2385   28.7974   10.3366 S.3     1  UNL1       -0.1277
      5 H           3.0296   26.0226   11.5636 H       1  UNL1        0.1869
      6 H           1.9810   29.6526    9.6230 H       1  UNL1        0.1082
@<TRIPOS>BOND
     1     1     2    1
     2     2     3    2
     3     2     4    1
     4     3     5    1
     5     4     6    1



#	Name:			CHEMBL388590
#	Creating user name:	trannguyen
#	Creation time:		Wed Dec  7 14:36:25 2022


#	Modifying user name:	trannguyen
#	Modification time:	Wed Dec  7 14:36:25 2022

@<TRIPOS>MOLECULE
CHEMBL388590
 23 25 0 0 0
SMALL
GASTEIGER

@<TRIPOS>ATOM
      1 C           4.3466   32.3818    8.4678 C.2     1  UNL1        0.1983
      2 O           4.0686   33.4638    8.9863 O.2     1  UNL1       -0.2865
      3 C           4.6919   32.3748    7.0141 C.ar    1  UNL1        0.0402
      4 C           3.6597   32.1567    6.0895 C.ar    1  UNL1        0.0129
      5 C           3.9356   32.1291    4.7206 C.ar    1  UNL1        0.0688
      6 BR          2.5108   31.8288    3.5062 Br      1  UNL1       -0.0458
      7 C           5.2400   32.3166    4.2574 C.ar    1  UNL1        0.1459
      8 O           5.5297   32.2504    2.9203 O.3     1  UNL1       -0.5045
      9 C           6.2629   32.5749    5.1736 C.ar    1  UNL1        0.0688
     10 BR          8.0516   32.8505    4.6023 Br      1  UNL1       -0.0458
     11 C           5.9899   32.6256    6.5463 C.ar    1  UNL1        0.0129
     12 H           4.7061   32.0545    2.4370 H       1  UNL1        0.2922
     13 C           5.5309   30.5927    9.7875 C.ar    1  UNL1        0.1258
     14 O           5.2628   29.3656   10.3155 O.2     1  UNL1       -0.4577
     15 C           3.9281   29.1560   10.1929 C.ar    1  UNL1        0.1449
     16 C           3.2590   28.0015   10.5925 C.ar    1  UNL1        0.0375
     17 C           1.8711   27.9966   10.4336 C.ar    1  UNL1        0.0031
     18 C           1.2020   29.1164    9.9367 C.ar    1  UNL1        0.0002
     19 C           1.9076   30.2584    9.5271 C.ar    1  UNL1        0.0032
     20 C           3.3153   30.2618    9.6157 C.ar    1  UNL1        0.0403
     21 C           4.3814   31.1451    9.2348 C.ar    1  UNL1        0.0722
     22 C           7.1208   32.1702   10.8834 C.3     1  UNL1        0.0084
     23 C           6.9490   31.0316    9.8941 C.3     1  UNL1        0.0646
@<TRIPOS>BOND
     1    22    23    1
     2    23    13    1
     3    13    14   ar
     4    13    21   ar
     5    14    15   ar
     6    15    16   ar
     7    15    20   ar
     8    16    17   ar
     9    17    18   ar
    10    18    19   ar
    11    19    20   ar
    12    20    21   ar
    13    21     1    1
    14     1     2    2
    15     1     3    1
    16     3     4   ar
    17     3    11   ar
    18     4     5   ar
    19     5     6    1
    20     5     7   ar
    21     7     8    1
    22     7     9   ar
    23     8    12    1
    24     9    10    1
    25     9    11   ar



#	Name:			CHEMBL395110
#	Creating user name:	trannguyen
#	Creation time:		Wed Dec  7 14:36:25 2022


#	Modifying user name:	trannguyen
#	Modification time:	Wed Dec  7 14:36:25 2022

@<TRIPOS>MOLECULE
CHEMBL395110
 22 25 0 0 0
SMALL
GASTEIGER

@<TRIPOS>ATOM
      1 N           3.2566   31.7248    9.0001 N.pl3   1  UNL1       -0.2861
      2 C           2.3906   30.6568    9.3615 C.ar    1  UNL1        0.0576
      3 C           0.9889   30.8110    9.3198 C.ar    1  UNL1        0.0153
      4 C           0.1191   29.7704    9.6635 C.ar    1  UNL1        0.0013
      5 C           0.6290   28.5507   10.0796 C.ar    1  UNL1        0.0006
      6 C           2.0077   28.3805   10.1705 C.ar    1  UNL1        0.0077
      7 C           2.8863   29.4250    9.8304 C.ar    1  UNL1        0.0431
      8 S           4.6269   29.0778    9.9781 S.3     1  UNL1       -0.0844
      9 C           5.3262   30.7143    9.9014 C.ar    1  UNL1        0.0431
     10 C           6.6635   30.8443   10.3182 C.ar    1  UNL1        0.0077
     11 C           7.3084   32.0771   10.2705 C.ar    1  UNL1        0.0006
     12 C           6.6205   33.1886    9.8091 C.ar    1  UNL1        0.0013
     13 C           5.2914   33.0644    9.3891 C.ar    1  UNL1        0.0153
     14 C           4.6155   31.8259    9.4090 C.ar    1  UNL1        0.0576
     15 C           2.8764   32.5029    7.7929 C.3     1  UNL1        0.0969
     16 C           5.9762   31.8879    4.5635 C.3     1  UNL1        0.0896
     17 N           4.7926   32.7374    4.4511 N.3     1  UNL1       -0.2715
     18 C           3.7704   32.1521    3.5755 C.3     1  UNL1        0.0721
     19 C           3.0248   30.9723    4.1974 C.3     1  UNL1        0.0174
     20 C           2.4298   31.3410    5.5531 C.3     1  UNL1        0.0045
     21 C           3.4904   31.9481    6.4846 C.3     1  UNL1        0.0362
     22 C           4.2317   33.0920    5.7610 C.3     1  UNL1        0.0738
@<TRIPOS>BOND
     1    16    17    1
     2    17    18    1
     3    17    22    1
     4    18    19    1
     5    19    20    1
     6    20    21    1
     7    21    15    1
     8    21    22    1
     9    15     1    1
    10     1     2    1
    11     1    14    1
    12     2     3   ar
    13     2     7   ar
    14     3     4   ar
    15     4     5   ar
    16     5     6   ar
    17     6     7   ar
    18     7     8    1
    19     8     9    1
    20     9    10   ar
    21     9    14   ar
    22    10    11   ar
    23    11    12   ar
    24    12    13   ar
    25    13    14   ar



#	Name:			CHEMBL398440
#	Creating user name:	trannguyen
#	Creation time:		Wed Dec  7 14:36:25 2022


#	Modifying user name:	trannguyen
#	Modification time:	Wed Dec  7 14:36:25 2022

@<TRIPOS>MOLECULE
CHEMBL398440
 11 11 0 0 0
SMALL
GASTEIGER

@<TRIPOS>ATOM
      1 C           5.3392   29.8970    9.8284 C.3     1  UNL1        0.0320
      2 C           3.9275   29.3983    9.9769 C.ar    1  UNL1       -0.0086
      3 C           3.7003   28.1726   10.6233 C.ar    1  UNL1        0.0332
      4 C           2.4027   27.6948   10.7716 C.ar    1  UNL1        0.1331
      5 O           2.1491   26.5082   11.3933 O.3     1  UNL1       -0.5055
      6 C           1.3169   28.4142   10.2891 C.ar    1  UNL1        0.0332
      7 C           1.5120   29.6416    9.6391 C.ar    1  UNL1       -0.0086
      8 C           0.3161   30.3968    9.1288 C.3     1  UNL1        0.0320
      9 C           2.8254   30.1282    9.4853 C.ar    1  UNL1        0.0499
     10 CL          3.0899   31.6442    8.6808 Cl      1  UNL1       -0.0829
     11 H           2.9913   26.1140   11.6734 H       1  UNL1        0.2922
@<TRIPOS>BOND
     1     1     2    1
     2     2     3   ar
     3     2     9   ar
     4     3     4   ar
     5     4     5    1
     6     4     6   ar
     7     5    11    1
     8     6     7   ar
     9     7     8    1
    10     7     9   ar
    11     9    10    1



#	Name:			CHEMBL3985556
#	Creating user name:	trannguyen
#	Creation time:		Wed Dec  7 14:36:25 2022


#	Modifying user name:	trannguyen
#	Modification time:	Wed Dec  7 14:36:25 2022

@<TRIPOS>MOLECULE
CHEMBL3985556
 42 45 0 0 0
SMALL
GASTEIGER

@<TRIPOS>ATOM
      1 C           8.4035   33.7817    4.0309 C.ar    1  UNL1        0.0629
      2 N           8.6178   33.8142    2.6937 N.ar    1  UNL1       -0.2168
      3 C           7.5626   33.6189    1.9121 C.ar    1  UNL1        0.2387
      4 N           6.3104   33.4006    2.3141 N.ar    1  UNL1       -0.2124
      5 C           6.0869   33.3267    3.6510 C.ar    1  UNL1        0.0853
      6 C           7.1385   33.5093    4.5826 C.ar    1  UNL1        0.0311
      7 C           4.6375   33.0702    3.9666 C.ar    1  UNL1        0.0179
      8 C           3.7458   34.1440    4.2243 C.ar    1  UNL1        0.0038
      9 C           2.3950   33.9362    4.5497 C.ar    1  UNL1        0.0297
     10 C           1.9015   32.6444    4.6149 C.ar    1  UNL1        0.1401
     11 F           0.6204   32.4323    4.9440 F       1  UNL1       -0.2042
     12 C           2.7226   31.5678    4.3254 C.ar    1  UNL1        0.0297
     13 C           4.0664   31.7841    3.9869 C.ar    1  UNL1        0.0038
     14 C          10.5086   32.8061    4.9837 C.3     1  UNL1        0.0063
     15 C           9.6515   34.0725    4.8562 C.3     1  UNL1        0.0404
     16 C          10.4711   35.2174    4.2409 C.3     1  UNL1        0.0063
     17 N           7.8205   33.6385    0.5219 N.pl3   1  UNL1       -0.1605
     18 C           6.8242   34.3746   -0.2647 C.3     1  UNL1        0.1420
     19 S           8.2424   32.1234   -0.0883 S.O2    1  UNL1        0.0611
     20 C           7.6370   32.2065   -1.7692 C.3     1  UNL1        0.1999
     21 O           9.7008   32.0013   -0.1604 O.2     1  UNL1       -0.1541
     22 O           7.4677   31.1245    0.5710 O.2     1  UNL1       -0.1541
     23 C           6.9337   33.4683    6.0466 C.2     1  UNL1        0.0005
     24 C           7.5653   32.5614    6.8087 C.2     1  UNL1        0.0031
     25 C           7.6619   32.5464    8.3193 C.3     1  UNL1        0.1432
     26 C           7.2832   33.8119    9.0849 C.3     1  UNL1        0.0637
     27 C           5.7732   34.0113    9.0895 C.3     1  UNL1        0.1196
     28 O           5.4306   35.1213    9.9130 O.3     1  UNL1       -0.3841
     29 C           5.0924   32.7550    9.6269 C.3     1  UNL1        0.1056
     30 C           5.5100   31.5446    8.7897 C.3     1  UNL1        0.2905
     31 O           6.9355   31.4319    8.8416 O.3     1  UNL1       -0.3185
     32 H           5.7352   35.9324    9.4695 H       1  UNL1        0.2103
     33 O           4.8655   30.3764    9.3284 O.3     1  UNL1       -0.4478
     34 C           3.4978   30.3037    9.2246 C.ar    1  UNL1        0.1959
     35 C           2.8456   29.5146   10.1779 C.ar    1  UNL1        0.1784
     36 F           3.5554   28.8747   11.1196 F       1  UNL1       -0.2008
     37 C           1.4597   29.3547   10.1747 C.ar    1  UNL1        0.0625
     38 C           0.7075   29.9934    9.2006 C.ar    1  UNL1        0.1448
     39 F          -0.6250   29.8634    9.1968 F       1  UNL1       -0.2040
     40 C           1.3171   30.7787    8.2373 C.ar    1  UNL1        0.0625
     41 C           2.6998   30.9447    8.2708 C.ar    1  UNL1        0.1784
     42 F           3.2253   31.7767    7.3649 F       1  UNL1       -0.2008
@<TRIPOS>BOND
     1    14    15    1
     2    15    16    1
     3    15     1    1
     4     1     2   ar
     5     1     6   ar
     6     2     3   ar
     7     3    17    1
     8     3     4   ar
     9    17    18    1
    10    17    19    1
    11    19    20    1
    12    19    21    2
    13    19    22    2
    14     4     5   ar
    15     5     7    1
    16     5     6   ar
    17     7     8   ar
    18     7    13   ar
    19     8     9   ar
    20     9    10   ar
    21    10    11    1
    22    10    12   ar
    23    12    13   ar
    24     6    23    1
    25    23    24    2
    26    24    25    1
    27    25    26    1
    28    25    31    1
    29    26    27    1
    30    27    28    1
    31    27    29    1
    32    28    32    1
    33    29    30    1
    34    30    33    1
    35    30    31    1
    36    33    34    1
    37    34    35   ar
    38    34    41   ar
    39    35    36    1
    40    35    37   ar
    41    37    38   ar
    42    38    39    1
    43    38    40   ar
    44    40    41   ar
    45    41    42    1






#	Name:			CHEMBL3986260
#	Creating user name:	trannguyen
#	Creation time:		Wed Dec  7 14:36:25 2022


#	Modifying user name:	trannguyen
#	Modification time:	Wed Dec  7 14:36:25 2022

@<TRIPOS>MOLECULE
CHEMBL3986260
 32 34 0 0 0
SMALL
GASTEIGER

@<TRIPOS>ATOM
      1 C           3.9586   32.7836    7.8687 C.3     1  UNL1        0.1726
      2 C           3.2930   33.1167    6.5117 C.3     1  UNL1        0.0467
      3 C           3.9903   32.4514    5.3180 C.3     1  UNL1        0.0344
      4 C           3.2840   32.8094    4.0070 C.3     1  UNL1        0.0030
      5 C           5.4824   32.8380    5.2913 C.3     1  UNL1        0.1287
      6 O           6.1840   31.9318    4.4463 O.3     1  UNL1       -0.3804
      7 C           6.1202   32.7543    6.6575 C.2     1  UNL1       -0.0167
      8 C           7.2875   33.3644    6.9332 C.2     1  UNL1       -0.0036
      9 C           7.9578   33.2667    8.2597 C.3     1  UNL1        0.1319
     10 O           7.5697   34.4207    8.9989 O.3     1  UNL1       -0.3801
     11 C           7.5848   31.9748    9.0163 C.3     1  UNL1        0.0316
     12 C           8.2972   30.7691    8.3871 C.3     1  UNL1        0.0029
     13 C           6.0371   31.8080    9.1089 C.3     1  UNL1        0.0101
     14 C           5.3184   32.0192    7.7206 C.3     1  UNL1        0.0605
     15 H           5.9312   32.1358    3.5314 H       1  UNL1        0.2108
     16 H           8.0509   34.3869    9.8484 H       1  UNL1        0.2108
     17 O           4.2164   34.0051    8.6073 O.3     1  UNL1       -0.4519
     18 C           3.6655   34.1449    9.8404 C.2     1  UNL1        0.3163
     19 O           4.2874   34.1937   10.8921 O.2     1  UNL1       -0.2501
     20 C           2.1665   34.3587    9.7048 C.3     1  UNL1        0.0991
     21 C           1.4062   33.2212   10.3789 C.3     1  UNL1        0.0116
     22 C           0.2882   35.8448   10.5929 C.3     1  UNL1        0.0006
     23 C           1.7812   35.7170   10.3100 C.3     1  UNL1        0.0111
     24 C           5.5928   30.4511    9.7431 C.3     1  UNL1        0.0042
     25 C           4.0952   30.3809   10.1059 C.3     1  UNL1        0.0440
     26 C           3.3111   29.3236    9.2928 C.3     1  UNL1        0.1735
     27 C           1.9029   29.7905    8.9000 C.3     1  UNL1        0.0698
     28 C           0.9475   29.6434   10.0378 C.2     1  UNL1       -0.0158
     29 C           1.1591   28.7274   10.9889 C.2     1  UNL1        0.0774
     30 C           2.3032   27.8021   10.9267 C.2     1  UNL1        0.3410
     31 O           2.3500   26.8276   11.6654 O.2     1  UNL1       -0.2449
     32 O           3.2640   28.0653   10.0054 O.3     1  UNL1       -0.4489
@<TRIPOS>BOND
     1    22    23    1
     2    20    21    1
     3    20    18    1
     4    20    23    1
     5    18    19    2
     6    18    17    1
     7     1     2    1
     8     1    14    1
     9     1    17    1
    10     2     3    1
    11     3     5    1
    12     3     4    1
    13     5     7    1
    14     5     6    1
    15     6    15    1
    16     7     8    2
    17     7    14    1
    18     8     9    1
    19     9    11    1
    20     9    10    1
    21    10    16    1
    22    11    13    1
    23    11    12    1
    24    13    14    1
    25    13    24    1
    26    24    25    1
    27    26    27    1
    28    26    32    1
    29    26    25    1
    30    27    28    1
    31    28    29    2
    32    29    30    1
    33    30    31    2
    34    30    32    1



#	Name:			CHEMBL4
#	Creating user name:	trannguyen
#	Creation time:		Wed Dec  7 14:36:25 2022


#	Modifying user name:	trannguyen
#	Modification time:	Wed Dec  7 14:36:25 2022

@<TRIPOS>MOLECULE
CHEMBL4
 27 30 0 0 0
SMALL
GASTEIGER

@<TRIPOS>ATOM
      1 C           0.7303   32.3821    9.1539 C.3     1  UNL1        0.0284
      2 C           2.1784   32.4903    9.6389 C.3     1  UNL1        0.1292
      3 C           2.9607   33.3577    8.6444 C.3     1  UNL1        0.2278
      4 O           4.3008   33.5676    9.0865 O.3     1  UNL1       -0.4707
      5 C           4.9625   32.3729    9.3010 C.ar    1  UNL1        0.1697
      6 C           6.3799   32.3970    9.1834 C.ar    1  UNL1        0.1116
      7 C           7.0499   31.1753    9.3852 C.ar    1  UNL1        0.1565
      8 F           8.3873   31.0986    9.3145 F       1  UNL1       -0.2028
      9 C           6.3757   30.0019    9.7034 C.ar    1  UNL1        0.0358
     10 C           4.9884   30.0181    9.8315 C.ar    1  UNL1        0.0603
     11 C           4.2867   28.7729   10.2146 C.ar    1  UNL1        0.2048
     12 O           4.8908   27.7112   10.3570 O.2     1  UNL1       -0.2862
     13 C           2.8330   28.8363   10.4627 C.ar    1  UNL1        0.1314
     14 C           2.2286   30.0131   10.2372 C.ar    1  UNL1        0.0857
     15 N           2.8351   31.1671    9.7642 N.ar    1  UNL1       -0.3215
     16 C           4.2501   31.1960    9.6311 C.ar    1  UNL1        0.0988
     17 N           7.0382   33.6091    8.8681 N.pl3   1  UNL1       -0.3005
     18 C           7.9190   33.6233    7.6824 C.3     1  UNL1        0.1083
     19 C           8.4072   35.0629    7.3899 C.3     1  UNL1        0.0938
     20 N           9.0794   35.7357    8.5262 N.3     1  UNL1       -0.2686
     21 C          10.3924   35.1526    8.7975 C.3     1  UNL1        0.0897
     22 C           8.1936   35.6545    9.7109 C.3     1  UNL1        0.0938
     23 C           7.6571   34.2416   10.0561 C.3     1  UNL1        0.1083
     24 C           2.0348   27.6907   10.9478 C.2     1  UNL1        0.3427
     25 O           1.2104   27.7791   11.8453 O.2     1  UNL1       -0.2449
     26 O           2.2905   26.5226   10.3190 O.3     1  UNL1       -0.4770
     27 H           2.9692   26.5895    9.6034 H       1  UNL1        0.2954
@<TRIPOS>BOND
     1     1     2    1
     2     2     3    1
     3     2    15    1
     4     3     4    1
     5     4     5    1
     6     5     6   ar
     7     5    16   ar
     8     6    17    1
     9     6     7   ar
    10    17    18    1
    11    17    23    1
    12    18    19    1
    13    19    20    1
    14    20    21    1
    15    20    22    1
    16    22    23    1
    17     7     8    1
    18     7     9   ar
    19     9    10   ar
    20    10    11   ar
    21    10    16   ar
    22    11    12    2
    23    11    13   ar
    24    13    24    1
    25    13    14   ar
    26    24    25    2
    27    24    26    1
    28    26    27    1
    29    14    15   ar
    30    15    16   ar



#	Name:			CHEMBL40
#	Creating user name:	trannguyen
#	Creation time:		Wed Dec  7 14:36:25 2022


#	Modifying user name:	trannguyen
#	Modification time:	Wed Dec  7 14:36:25 2022

@<TRIPOS>MOLECULE
CHEMBL40
 19 20 0 0 0
SMALL
GASTEIGER

@<TRIPOS>ATOM
      1 C           2.3392   31.8529    8.2707 C.3     1  UNL1        0.1566
      2 C           2.9549   33.2604    8.2766 C.2     1  UNL1        0.2405
      3 O           3.7374   33.6768    7.4228 O.2     1  UNL1       -0.2738
      4 N           2.6403   34.0545    9.3458 N.am    1  UNL1       -0.2387
      5 C           1.4909   33.9560   10.0617 C.2     1  UNL1        0.3122
      6 O           1.0731   34.8946   10.7316 O.2     1  UNL1       -0.2520
      7 N           0.7670   32.8171    9.9117 N.am    1  UNL1       -0.2387
      8 C           0.9355   31.9212    8.8910 C.2     1  UNL1        0.2405
      9 O          -0.0012   31.1927    8.5645 O.2     1  UNL1       -0.2738
     10 H           3.0732   34.9680    9.3565 H       1  UNL1        0.1591
     11 H          -0.1518   32.8362   10.3333 H       1  UNL1        0.1591
     12 C           3.2396   30.8714    9.0749 C.ar    1  UNL1       -0.0064
     13 C           4.6318   31.0687    9.1647 C.ar    1  UNL1       -0.0034
     14 C           5.4453   30.1769    9.8690 C.ar    1  UNL1       -0.0003
     15 C           4.8904   29.0596   10.4832 C.ar    1  UNL1       -0.0000
     16 C           3.5233   28.8255   10.3820 C.ar    1  UNL1       -0.0003
     17 C           2.7071   29.7154    9.6782 C.ar    1  UNL1       -0.0034
     18 C           1.6051   32.2410    5.8059 C.3     1  UNL1        0.0013
     19 C           2.2603   31.3027    6.8188 C.3     1  UNL1        0.0215
@<TRIPOS>BOND
     1    18    19    1
     2    19     1    1
     3     1    12    1
     4     1     2    1
     5     1     8    1
     6    12    13   ar
     7    12    17   ar
     8    13    14   ar
     9    14    15   ar
    10    15    16   ar
    11    16    17   ar
    12     2     3    2
    13     2     4   am
    14     4     5   am
    15     4    10    1
    16     5     6    2
    17     5     7   am
    18     7     8   am
    19     7    11    1
    20     8     9    2



#	Name:			CHEMBL403
#	Creating user name:	trannguyen
#	Creation time:		Wed Dec  7 14:36:25 2022


#	Modifying user name:	trannguyen
#	Modification time:	Wed Dec  7 14:36:25 2022

@<TRIPOS>MOLECULE
CHEMBL403
 16 17 0 0 0
SMALL
GASTEIGER

@<TRIPOS>ATOM
      1 C           5.3081   33.6611    3.0029 C.3     1  UNL1        0.0260
      2 C           6.6038   32.8288    3.1007 C.3     1  UNL1        0.1394
      3 C           6.2835   31.5964    3.9560 C.3     1  UNL1        0.0260
      4 C           7.1857   32.5471    1.6965 C.3     1  UNL1        0.1960
      5 N           8.0377   33.6951    1.3238 N.am    1  UNL1       -0.2518
      6 C           7.4517   34.8304    0.8256 C.2     1  UNL1        0.2307
      7 O           6.5110   34.9493    0.0801 O.2     1  UNL1       -0.2747
      8 C           8.2528   35.7349    1.7683 C.3     1  UNL1        0.1296
      9 C           8.7358   34.4347    2.4153 C.3     1  UNL1        0.2153
     10 S           7.9175   33.8145    3.8921 S.O2    1  UNL1        0.0051
     11 O           7.3206   34.9179    4.6183 O.2     1  UNL1       -0.1715
     12 O           8.8320   32.9092    4.5604 O.2     1  UNL1       -0.1715
     13 C           8.0132   31.2601    1.5602 C.2     1  UNL1        0.3338
     14 O           9.2305   31.2125    1.6423 O.2     1  UNL1       -0.2484
     15 O           7.2655   30.1384    1.4247 O.3     1  UNL1       -0.4790
     16 H           6.3111   30.3350    1.5138 H       1  UNL1        0.2951
@<TRIPOS>BOND
     1     1     2    1
     2     2     3    1
     3     2     4    1
     4     2    10    1
     5     4     5    1
     6     4    13    1
     7    13    14    2
     8    13    15    1
     9    15    16    1
    10     5     6   am
    11     5     9    1
    12     6     7    2
    13     6     8    1
    14     8     9    1
    15     9    10    1
    16    10    11    2
    17    10    12    2



#	Name:			CHEMBL404520
#	Creating user name:	trannguyen
#	Creation time:		Wed Dec  7 14:36:25 2022


#	Modifying user name:	trannguyen
#	Modification time:	Wed Dec  7 14:36:25 2022

@<TRIPOS>MOLECULE
CHEMBL404520
 40 43 0 0 0
SMALL
GASTEIGER

@<TRIPOS>ATOM
      1 C           9.7426   32.7277    5.6859 C.3     1  UNL1        0.1180
      2 C          10.8467   32.2286    6.6245 C.2     1  UNL1        0.1328
      3 O          11.7833   31.4100    6.0024 O.2     1  UNL1       -0.5082
      4 C          10.8829   32.5510    7.9371 C.2     1  UNL1        0.1212
      5 C           9.7744   33.3954    8.4769 C.2     1  UNL1        0.2108
      6 O           9.9935   34.1382    9.4417 O.2     1  UNL1       -0.2882
      7 C           8.3880   33.3521    7.7695 C.3     1  UNL1        0.1943
      8 O           8.0331   34.7084    7.4810 O.3     1  UNL1       -0.3729
      9 C           7.2448   32.8285    8.6328 C.2     1  UNL1        0.1414
     10 O           7.3885   33.0437    9.9931 O.2     1  UNL1       -0.5072
     11 C           6.1621   32.2175    8.0929 C.2     1  UNL1        0.0512
     12 C           5.0849   31.7187    8.9774 C.2     1  UNL1        0.1971
     13 O           5.2910   31.5400   10.1785 O.2     1  UNL1       -0.2867
     14 C           3.7442   31.4532    8.3974 C.ar    1  UNL1        0.0714
     15 C           2.7635   30.9037    9.2529 C.ar    1  UNL1        0.1365
     16 O           3.0069   30.5114   10.5430 O.3     1  UNL1       -0.5054
     17 C           1.4545   30.7396    8.8308 C.ar    1  UNL1        0.0376
     18 C           1.0940   31.1880    7.5714 C.ar    1  UNL1        0.0143
     19 C           2.0516   31.7491    6.7131 C.ar    1  UNL1        0.0562
     20 CL          1.3861   32.4486    5.2769 Cl      1  UNL1       -0.0825
     21 C           3.4226   31.8220    7.0660 C.ar    1  UNL1        0.0186
     22 C           4.5249   32.3173    6.1177 C.3     1  UNL1        0.1118
     23 C           4.3921   31.7726    4.6741 C.3     1  UNL1        0.0343
     24 O           4.4274   33.7409    6.0730 O.3     1  UNL1       -0.3823
     25 C           5.9660   31.9308    6.6208 C.3     1  UNL1        0.0569
     26 C           7.1096   32.5392    5.7522 C.3     1  UNL1        0.0122
     27 C           8.4466   32.4885    6.5003 C.3     1  UNL1        0.0611
     28 H          12.4630   31.1443    6.6649 H       1  UNL1        0.2918
     29 H           8.0857   35.1737    8.3395 H       1  UNL1        0.2113
     30 H           6.6540   32.5953   10.4678 H       1  UNL1        0.2918
     31 H           3.9182   30.7862   10.7877 H       1  UNL1        0.2922
     32 H           3.5462   33.9755    5.7297 H       1  UNL1        0.2107
     33 C          12.0423   32.1193    8.7632 C.2     1  UNL1        0.2483
     34 N          12.7636   33.0950    9.3688 N.am    1  UNL1       -0.3252
     35 O          12.3479   30.9357    8.8817 O.2     1  UNL1       -0.2702
     36 H          13.6033   32.8468    9.8726 H       1  UNL1        0.1453
     37 H          12.5770   34.0812    9.1858 H       1  UNL1        0.1453
     38 C          11.5250   34.2560    5.0035 C.3     1  UNL1        0.0900
     39 N          10.0747   34.0903    5.2038 N.3     1  UNL1       -0.2653
     40 C           9.4004   34.4529    3.9575 C.3     1  UNL1        0.0900
@<TRIPOS>BOND
     1    38    39    1
     2    39    40    1
     3    39     1    1
     4     1     2    1
     5     1    27    1
     6     2     4    2
     7     2     3    1
     8     3    28    1
     9     4     5    1
    10     4    33    1
    11    33    34   am
    12    33    35    2
    13    34    36    1
    14    34    37    1
    15     5     7    1
    16     5     6    2
    17     7     9    1
    18     7    27    1
    19     7     8    1
    20     8    29    1
    21     9    11    2
    22     9    10    1
    23    10    30    1
    24    11    12    1
    25    11    25    1
    26    12    14    1
    27    12    13    2
    28    14    15   ar
    29    14    21   ar
    30    15    17   ar
    31    15    16    1
    32    16    31    1
    33    17    18   ar
    34    18    19   ar
    35    19    21   ar
    36    19    20    1
    37    21    22    1
    38    22    25    1
    39    22    24    1
    40    22    23    1
    41    24    32    1
    42    25    26    1
    43    26    27    1



#	Name:			CHEMBL407030
#	Creating user name:	trannguyen
#	Creation time:		Wed Dec  7 14:36:25 2022


#	Modifying user name:	trannguyen
#	Modification time:	Wed Dec  7 14:36:25 2022

@<TRIPOS>MOLECULE
CHEMBL407030
 111 119 0 0 0
SMALL
GASTEIGER

@<TRIPOS>ATOM
      1 C           9.9009   36.9827   -3.8266 C.3     1  UNL1        0.1518
      2 O           9.6959   37.6008   -5.1153 O.3     1  UNL1       -0.3284
      3 C           8.8333   36.8447   -5.9325 C.3     1  UNL1        0.2656
      4 O           8.9169   37.1173   -7.3281 O.3     1  UNL1       -0.3260
      5 C           9.2439   38.4009   -7.8932 C.3     1  UNL1        0.1766
      6 C          10.4410   39.1744   -7.2895 C.3     1  UNL1        0.1765
      7 O          10.1331   40.1662   -6.2856 O.3     1  UNL1       -0.3260
      8 C           8.8282   40.7278   -6.2811 C.3     1  UNL1        0.2658
      9 O           8.9304   42.1150   -5.8997 O.3     1  UNL1       -0.3260
     10 C           9.0143   42.3696   -4.4853 C.3     1  UNL1        0.1766
     11 C           8.4161   43.7766   -4.2273 C.3     1  UNL1        0.1765
     12 O           8.9969   44.5087   -3.1290 O.3     1  UNL1       -0.3260
     13 C           9.4231   43.7333   -2.0064 C.3     1  UNL1        0.2658
     14 O           8.2539   43.2592   -1.3206 O.3     1  UNL1       -0.3260
     15 C           8.5145   42.5111   -0.1241 C.3     1  UNL1        0.1766
     16 C           7.5831   41.2918   -0.0673 C.3     1  UNL1        0.1765
     17 O           7.9208   40.3624    0.9769 O.3     1  UNL1       -0.3260
     18 C           8.6903   40.9190    2.0553 C.3     1  UNL1        0.2658
     19 O          10.0686   40.9693    1.7009 O.3     1  UNL1       -0.3260
     20 C          10.8952   39.9075    2.1962 C.3     1  UNL1        0.1766
     21 C          12.3631   40.3265    1.9920 C.3     1  UNL1        0.1765
     22 O          13.3354   39.3819    2.4705 O.3     1  UNL1       -0.3260
     23 C          12.8684   38.0455    2.6471 C.3     1  UNL1        0.2658
     24 O          12.2994   37.9553    3.9520 O.3     1  UNL1       -0.3260
     25 C          12.7059   36.8205    4.7501 C.3     1  UNL1        0.1766
     26 C          12.2685   35.4985    4.0982 C.3     1  UNL1        0.1765
     27 O          10.8422   35.4291    3.8918 O.3     1  UNL1       -0.3260
     28 C          10.0495   36.3058    4.6832 C.3     1  UNL1        0.2658
     29 O           8.6663   35.9869    4.5589 O.3     1  UNL1       -0.3260
     30 C           8.1190   34.7441    5.0152 C.3     1  UNL1        0.1766
     31 C           9.0296   33.5041    4.9805 C.3     1  UNL1        0.1765
     32 O           9.3618   33.0176    3.6670 O.3     1  UNL1       -0.3260
     33 C           8.3851   33.1852    2.6301 C.3     1  UNL1        0.2658
     34 O           8.7907   34.2684    1.7635 O.3     1  UNL1       -0.3260
     35 C           8.3417   34.1054    0.3924 C.3     1  UNL1        0.1764
     36 C           9.5385   34.2302   -0.6006 C.3     1  UNL1        0.1739
     37 O           9.6026   35.4658   -1.3375 O.3     1  UNL1       -0.3509
     38 C           8.3860   35.8698   -1.9642 C.3     1  UNL1        0.1493
     39 C           8.6081   37.0588   -2.9676 C.3     1  UNL1        0.0889
     40 C           7.3534   37.2550   -3.8609 C.3     1  UNL1        0.1471
     41 O           7.0293   38.6644   -3.9027 O.3     1  UNL1       -0.3816
     42 C           7.4199   36.7555   -5.3217 C.3     1  UNL1        0.1940
     43 O           6.4141   37.4556   -6.0654 O.3     1  UNL1       -0.3776
     44 C           7.4731   36.2615   -0.7890 C.3     1  UNL1        0.1668
     45 O           6.2188   36.8023   -1.1890 O.3     1  UNL1       -0.3795
     46 C           7.1910   35.0855    0.1428 C.3     1  UNL1        0.1692
     47 O           6.0722   34.3530   -0.4094 O.3     1  UNL1       -0.3794
     48 C           6.9562   33.3327    3.1917 C.3     1  UNL1        0.1964
     49 O           5.9334   33.4143    2.1810 O.3     1  UNL1       -0.3775
     50 C           6.8621   34.5419    4.1329 C.3     1  UNL1        0.1719
     51 O           5.6912   34.3625    4.9477 O.3     1  UNL1       -0.3794
     52 C          10.5574   36.4505    6.1278 C.3     1  UNL1        0.1964
     53 O           9.7275   37.3176    6.9147 O.3     1  UNL1       -0.3775
     54 C          12.0048   37.0028    6.1168 C.3     1  UNL1        0.1719
     55 O          12.7642   36.3560    7.1450 O.3     1  UNL1       -0.3794
     56 C          11.8505   37.6166    1.5638 C.3     1  UNL1        0.1964
     57 O          12.5228   37.5064    0.3049 O.3     1  UNL1       -0.3775
     58 C          10.6560   38.5868    1.4421 C.3     1  UNL1        0.1719
     59 O           9.4588   37.9656    1.9525 O.3     1  UNL1       -0.3794
     60 C           8.1981   42.3544    2.3984 C.3     1  UNL1        0.1964
     61 O           6.8498   42.2950    2.9091 O.3     1  UNL1       -0.3775
     62 C           8.2383   43.3031    1.1662 C.3     1  UNL1        0.1719
     63 O           9.2526   44.2967    1.3485 O.3     1  UNL1       -0.3794
     64 C          10.4310   42.6366   -2.4461 C.3     1  UNL1        0.1964
     65 O          11.7635   42.9713   -2.0238 O.3     1  UNL1       -0.3775
     66 C          10.4535   42.3947   -3.9590 C.3     1  UNL1        0.1719
     67 O          11.1628   41.1605   -4.1317 O.3     1  UNL1       -0.3794
     68 C           8.1543   40.7099   -7.6551 C.3     1  UNL1        0.1964
     69 O           6.8524   41.3220   -7.6112 O.3     1  UNL1       -0.3775
     70 C           8.0071   39.2766   -8.1555 C.3     1  UNL1        0.1719
     71 O           7.7613   39.3475   -9.5780 O.3     1  UNL1       -0.3794
     72 H           6.6683   38.8679   -3.0047 H       1  UNL1        0.2104
     73 H           6.2948   38.3035   -5.5866 H       1  UNL1        0.2106
     74 H           5.6016   36.0349   -1.2271 H       1  UNL1        0.2105
     75 H           5.7389   33.8116    0.3431 H       1  UNL1        0.2105
     76 H           5.1021   33.5396    2.6883 H       1  UNL1        0.2106
     77 H           5.5118   35.2177    5.3846 H       1  UNL1        0.2105
     78 H           8.8386   37.3111    6.5142 H       1  UNL1        0.2106
     79 H          12.3837   36.6554    7.9946 H       1  UNL1        0.2105
     80 H          11.8919   37.0665   -0.3087 H       1  UNL1        0.2106
     81 H           9.4270   37.0523    1.6261 H       1  UNL1        0.2105
     82 H           6.3860   41.5721    2.4501 H       1  UNL1        0.2106
     83 H           9.0679   45.0160    0.7167 H       1  UNL1        0.2105
     84 H          12.3447   42.2958   -2.4268 H       1  UNL1        0.2106
     85 H          10.9327   40.8054   -5.0154 H       1  UNL1        0.2105
     86 H           6.9955   42.2243   -7.2661 H       1  UNL1        0.2106
     87 H           6.9282   39.8499   -9.6715 H       1  UNL1        0.2105
     88 O          11.9194   37.0593   -2.3762 O.3     1  UNL1       -0.3795
     89 C          11.0980   37.7720   -3.2750 C.3     1  UNL1        0.1668
     90 H          12.7386   37.5979   -2.3137 H       1  UNL1        0.2105
     91 C          11.2606   39.8829   -8.3933 C.3     1  UNL1        0.1693
     92 O          10.9235   39.3528   -9.6765 O.3     1  UNL1       -0.3794
     93 H          10.9711   38.3837   -9.5955 H       1  UNL1        0.2105
     94 C           6.8886   43.7371   -4.0820 C.3     1  UNL1        0.1693
     95 O           6.3028   43.2152   -5.2742 O.3     1  UNL1       -0.3794
     96 H           6.7672   43.6599   -6.0105 H       1  UNL1        0.2105
     97 C           7.5565   40.5458   -1.3920 C.3     1  UNL1        0.1693
     98 O           6.3987   39.7281   -1.4920 O.3     1  UNL1       -0.3794
     99 H           6.3499   39.2005   -0.6719 H       1  UNL1        0.2105
    100 C          12.6726   41.6598    2.6886 C.3     1  UNL1        0.1693
    101 O          12.0928   42.7373    1.9489 O.3     1  UNL1       -0.3794
    102 H          12.2640   42.5256    1.0105 H       1  UNL1        0.2105
    103 C          12.7301   34.2348    4.8373 C.3     1  UNL1        0.1693
    104 O          14.0987   34.3915    5.2294 O.3     1  UNL1       -0.3794
    105 H          14.5581   34.8392    4.4888 H       1  UNL1        0.2105
    106 C           8.4922   32.3476    5.8478 C.3     1  UNL1        0.1693
    107 O           7.6570   32.8597    6.8839 O.3     1  UNL1       -0.3794
    108 H           8.0025   33.7388    7.1313 H       1  UNL1        0.2105
    109 C           9.5436   33.0263   -1.5710 C.3     1  UNL1        0.1692
    110 O           8.3635   32.2495   -1.4019 O.3     1  UNL1       -0.3794
    111 H           8.3808   31.5335   -2.0835 H       1  UNL1        0.2105
@<TRIPOS>BOND
     1    88    89    1
     2    88    90    1
     3    89     1    1
     4     1     2    1
     5     1    39    1
     6     2     3    1
     7     3     4    1
     8     3    42    1
     9     4     5    1
    10     5     6    1
    11     5    70    1
    12     6     7    1
    13     6    91    1
    14    91    92    1
    15    92    93    1
    16     7     8    1
    17     8     9    1
    18     8    68    1
    19     9    10    1
    20    10    11    1
    21    10    66    1
    22    11    12    1
    23    11    94    1
    24    94    95    1
    25    95    96    1
    26    12    13    1
    27    13    14    1
    28    13    64    1
    29    14    15    1
    30    15    16    1
    31    15    62    1
    32    16    17    1
    33    16    97    1
    34    97    98    1
    35    98    99    1
    36    17    18    1
    37    18    19    1
    38    18    60    1
    39    19    20    1
    40    20    21    1
    41    20    58    1
    42    21    22    1
    43    21   100    1
    44   100   101    1
    45   101   102    1
    46    22    23    1
    47    23    24    1
    48    23    56    1
    49    24    25    1
    50    25    26    1
    51    25    54    1
    52    26    27    1
    53    26   103    1
    54   103   104    1
    55   104   105    1
    56    27    28    1
    57    28    29    1
    58    28    52    1
    59    29    30    1
    60    30    31    1
    61    30    50    1
    62    31    32    1
    63    31   106    1
    64   106   107    1
    65   107   108    1
    66    32    33    1
    67    33    34    1
    68    33    48    1
    69    34    35    1
    70    35    36    1
    71    35    46    1
    72    36    37    1
    73    36   109    1
    74   109   110    1
    75   110   111    1
    76    37    38    1
    77    38    39    1
    78    38    44    1
    79    39    40    1
    80    40    42    1
    81    40    41    1
    82    41    72    1
    83    42    43    1
    84    43    73    1
    85    44    46    1
    86    44    45    1
    87    45    74    1
    88    46    47    1
    89    47    75    1
    90    48    50    1
    91    48    49    1
    92    49    76    1
    93    50    51    1
    94    51    77    1
    95    52    54    1
    96    52    53    1
    97    53    78    1
    98    54    55    1
    99    55    79    1
   100    56    58    1
   101    56    57    1
   102    57    80    1
   103    58    59    1
   104    59    81    1
   105    60    62    1
   106    60    61    1
   107    61    82    1
   108    62    63    1
   109    63    83    1
   110    64    66    1
   111    64    65    1
   112    65    84    1
   113    66    67    1
   114    67    85    1
   115    68    70    1
   116    68    69    1
   117    69    86    1
   118    70    71    1
   119    71    87    1



#	Name:			CHEMBL409841
#	Creating user name:	trannguyen
#	Creation time:		Wed Dec  7 14:36:25 2022


#	Modifying user name:	trannguyen
#	Modification time:	Wed Dec  7 14:36:25 2022

@<TRIPOS>MOLECULE
CHEMBL409841
 42 42 0 0 0
SMALL
GASTEIGER

@<TRIPOS>ATOM
      1 N           5.9394   32.6123    9.7067 N.am    3  VAL3       -0.2970
      2 C           6.9650   33.4667    9.3766 C.2     2  ALA2        0.2406
      3 O           7.1526   34.4291   10.1342 O.2     2  ALA2       -0.2733
      4 H           5.4540   32.9491   10.5348 H       3  VAL3        0.1499
      5 CA          7.8636   33.2843    8.1206 C.3     2  ALA2        0.1486
      6 CB          9.1660   34.0887    8.1496 C.3     2  ALA2        0.0312
      7 N           7.1298   33.6223    6.8809 N.am    2  ALA2       -0.2973
      8 C           7.4360   33.0368    5.6736 C.2     1  TYR1        0.2371
      9 O           8.2834   32.1445    5.5897 O.2     1  TYR1       -0.2737
     10 H           6.3500   34.2821    6.8987 H       2  ALA2        0.1499
     11 CA          6.6735   33.5381    4.4195 C.3     1  TYR1        0.1327
     12 N           7.5986   34.0496    3.3754 N.3     1  TYR1       -0.3148
     13 H1          7.0302   34.4745    2.6357 H       1  TYR1        0.1192
     14 H2          8.0434   33.2581    2.9097 H       1  TYR1        0.1192
     15 CB          5.7575   32.3835    3.9377 C.3     1  TYR1        0.0512
     16 CG          4.2652   32.5364    4.1433 C.ar    1  TYR1       -0.0201
     17 CD1         3.4543   31.3890    4.1988 C.ar    1  TYR1       -0.0011
     18 CE1         2.0844   31.4941    4.4558 C.ar    1  TYR1        0.0363
     19 CZ          1.5227   32.7498    4.6560 C.ar    1  TYR1        0.1337
     20 OH          0.1943   32.9050    4.9174 O.3     1  TYR1       -0.5055
     21 CE2         2.3053   33.8944    4.6068 C.ar    1  TYR1        0.0363
     22 CD2         3.6745   33.7867    4.3690 C.ar    1  TYR1       -0.0011
     23 HH         -0.2253   32.0296    4.9109 H       1  TYR1        0.2922
     24 CA          5.3681   31.3526    9.1406 C.3     3  VAL3        0.1485
     25 C           3.8624   31.6218    8.7439 C.2     3  VAL3        0.2407
     26 O           3.5599   31.9061    7.5793 O.2     3  VAL3       -0.2733
     27 N           2.8681   31.5259    9.6982 N.am    4  GLU4       -0.2954
     28 H           3.0541   31.1276   10.6098 H       4  GLU4        0.1499
     29 CA          1.5347   32.0768    9.3620 C.3     4  GLU4        0.1718
     30 C           1.0846   33.2754   10.2303 C.2     4  GLU4        0.3318
     31 O          -0.0660   33.6714   10.3473 O.2     4  GLU4       -0.2485
     32 OXT         2.0811   33.8748   10.9142 O.3     4  GLU4       -0.4791
     33 HXT         1.6215   34.5364   11.4726 H       4  GLU4        0.2951
     34 CB          0.4278   31.0127    9.2420 C.3     4  GLU4        0.0427
     35 CG          0.8463   29.5457    9.2178 C.3     4  GLU4        0.1116
     36 CD          0.9727   28.8819   10.5810 C.2     4  GLU4        0.3139
     37 OE1         1.8646   29.0141   11.3590 O.2     4  GLU4       -0.2503
     38 OE2        -0.0471   28.0488   10.8279 O.3     4  GLU4       -0.4802
     39 HE2         0.2120   27.6784   11.7249 H       4  GLU4        0.2951
     40 CG1         6.4268   30.0253   11.1718 C.3     3  VAL3        0.0022
     41 CB          5.2554   30.2060   10.2219 C.3     3  VAL3        0.0269
     42 CG2         4.9482   28.8236    9.6029 C.3     3  VAL3        0.0022
@<TRIPOS>BOND
     1    40    41    1
     2    41    42    1
     3    24     1    1
     4    24    25    1
     5    24    41    1
     6     1     2   am
     7     1     4    1
     8     2     3    2
     9     5     6    1
    10     5     7    1
    11     5     2    1
    12     7     8   am
    13     7    10    1
    14     8     9    2
    15     8    11    1
    16    11    12    1
    17    11    15    1
    18    12    13    1
    19    12    14    1
    20    15    16    1
    21    16    17   ar
    22    16    22   ar
    23    17    18   ar
    24    18    19   ar
    25    19    20    1
    26    19    21   ar
    27    20    23    1
    28    21    22   ar
    29    25    26    2
    30    25    27   am
    31    27    29    1
    32    27    28    1
    33    29    34    1
    34    29    30    1
    35    34    35    1
    36    35    36    1
    37    36    37    2
    38    36    38    1
    39    38    39    1
    40    30    31    2
    41    30    32    1
    42    32    33    1



#	Name:			CHEMBL411
#	Creating user name:	trannguyen
#	Creation time:		Wed Dec  7 14:36:25 2022


#	Modifying user name:	trannguyen
#	Modification time:	Wed Dec  7 14:36:25 2022

@<TRIPOS>MOLECULE
CHEMBL411
 22 23 0 0 0
SMALL
GASTEIGER

@<TRIPOS>ATOM
      1 C           4.9334   32.4256    6.5092 C.2     1  UNL1       -0.0261
      2 C           4.4884   32.1700    5.2506 C.2     1  UNL1       -0.0261
      3 C           5.3986   32.2861    4.0934 C.ar    1  UNL1       -0.0041
      4 C           6.1544   31.1778    3.6850 C.ar    1  UNL1        0.0028
      5 C           7.0475   31.2823    2.6162 C.ar    1  UNL1        0.0366
      6 C           7.1758   32.4971    1.9514 C.ar    1  UNL1        0.1337
      7 O           8.0434   32.6479    0.9105 O.3     1  UNL1       -0.5055
      8 C           6.4230   33.6025    2.3338 C.ar    1  UNL1        0.0366
      9 C           5.5354   33.4989    3.4069 C.ar    1  UNL1        0.0028
     10 H           8.5283   31.8150    0.7891 H       1  UNL1        0.2922
     11 C           4.0296   32.2978    7.6712 C.ar    1  UNL1       -0.0041
     12 C           3.3969   33.4317    8.1998 C.ar    1  UNL1        0.0028
     13 C           2.5557   33.3203    9.3097 C.ar    1  UNL1        0.0366
     14 C           2.3520   32.0721    9.8893 C.ar    1  UNL1        0.1337
     15 O           1.5487   31.9183   10.9802 O.3     1  UNL1       -0.5055
     16 C           2.9660   30.9368    9.3728 C.ar    1  UNL1        0.0366
     17 C           3.8034   31.0479    8.2616 C.ar    1  UNL1        0.0028
     18 H           1.2071   32.7900   11.2381 H       1  UNL1        0.2922
     19 C           7.2804   31.8027    7.2539 C.3     1  UNL1        0.0050
     20 C           6.3213   32.9239    6.8731 C.3     1  UNL1        0.0260
     21 C           3.0954   31.6794    4.9004 C.3     1  UNL1        0.0260
     22 C           2.1222   32.8139    4.6042 C.3     1  UNL1        0.0050
@<TRIPOS>BOND
     1    19    20    1
     2    20     1    1
     3     1     2    2
     4     1    11    1
     5     2    21    1
     6     2     3    1
     7    21    22    1
     8     3     4   ar
     9     3     9   ar
    10     4     5   ar
    11     5     6   ar
    12     6     7    1
    13     6     8   ar
    14     7    10    1
    15     8     9   ar
    16    11    12   ar
    17    11    17   ar
    18    12    13   ar
    19    13    14   ar
    20    14    15    1
    21    14    16   ar
    22    15    18    1
    23    16    17   ar



#	Name:			CHEMBL411443
#	Creating user name:	trannguyen
#	Creation time:		Wed Dec  7 14:36:25 2022


#	Modifying user name:	trannguyen
#	Modification time:	Wed Dec  7 14:36:25 2022

@<TRIPOS>MOLECULE
CHEMBL411443
 42 42 0 0 0
SMALL
GASTEIGER

@<TRIPOS>ATOM
      1 CA          6.6101   33.2890    8.9566 C.3     2  VAL2        0.1485
      2 N           5.2577   32.7346    9.2107 N.am    2  VAL2       -0.2973
      3 C           4.0636   33.3864    8.9486 C.2     1  TYR1        0.2371
      4 O           4.0018   34.4967    8.4441 O.2     1  TYR1       -0.2737
      5 H           5.2181   31.8372    9.6772 H       2  VAL2        0.1499
      6 CA          2.8246   32.6534    9.5189 C.3     1  TYR1        0.1327
      7 N           1.7170   33.6357    9.5180 N.3     1  TYR1       -0.3148
      8 H1          1.9040   34.4149   10.1385 H       1  TYR1        0.1192
      9 H2          0.8522   33.1922    9.8331 H       1  TYR1        0.1192
     10 CB          2.4743   31.4122    8.6647 C.3     1  TYR1        0.0512
     11 CG          2.4019   30.1035    9.4337 C.ar    1  TYR1       -0.0201
     12 CD1         1.1541   29.5960    9.8326 C.ar    1  TYR1       -0.0011
     13 CE1         1.0711   28.4250   10.5937 C.ar    1  TYR1        0.0363
     14 CZ          2.2369   27.7558   10.9501 C.ar    1  TYR1        0.1337
     15 OH          2.2130   26.6274   11.7130 O.3     1  TYR1       -0.5055
     16 CE2         3.4754   28.2201   10.5374 C.ar    1  TYR1        0.0363
     17 CD2         3.5549   29.3756    9.7652 C.ar    1  TYR1       -0.0011
     18 HH          1.2899   26.4257   11.9350 H       1  TYR1        0.2922
     19 C           7.4203   32.4585    7.9008 C.2     2  VAL2        0.2406
     20 O           8.1358   31.4986    8.1864 O.2     2  VAL2       -0.2733
     21 N           7.4176   32.9608    6.6239 N.am    3  ALA3       -0.2970
     22 H           6.6801   33.6185    6.4048 H       3  ALA3        0.1499
     23 CA          8.0944   32.3036    5.5033 C.3     3  ALA3        0.1486
     24 CB          7.3163   32.5857    4.2218 C.3     3  ALA3        0.0312
     25 C           9.5685   32.7749    5.3936 C.2     3  ALA3        0.2407
     26 O           9.9604   33.5175    4.4980 O.2     3  ALA3       -0.2733
     27 N          10.4439   32.2229    6.3125 N.am    4  GLU4       -0.2954
     28 H          10.1120   31.4203    6.8546 H       4  GLU4        0.1499
     29 CA         11.8700   32.5909    6.3615 C.3     4  GLU4        0.1718
     30 C          12.7296   31.5486    5.5886 C.2     4  GLU4        0.3318
     31 O          12.7793   31.4618    4.3683 O.2     4  GLU4       -0.2485
     32 OXT        13.3699   30.6447    6.3739 O.3     4  GLU4       -0.4791
     33 HXT        13.1710   30.7494    7.3242 H       4  GLU4        0.2951
     34 CB         12.4040   32.7878    7.8067 C.3     4  GLU4        0.0427
     35 CG         11.5785   32.2853    9.0120 C.3     4  GLU4        0.1116
     36 CD         11.6377   30.8134    9.3176 C.2     4  GLU4        0.3139
     37 OE1        12.1968   30.3203   10.3029 O.2     4  GLU4       -0.2503
     38 OE2        10.9522   30.0497    8.4458 O.3     4  GLU4       -0.4802
     39 HE2        10.5458   30.5193    7.6995 H       4  GLU4        0.2951
     40 CG1         7.3025   32.5784   11.3011 C.3     2  VAL2        0.0022
     41 CB          7.4109   33.6742   10.2315 C.3     2  VAL2        0.0269
     42 CG2         6.9504   34.9960   10.8595 C.3     2  VAL2        0.0022
@<TRIPOS>BOND
     1    40    41    1
     2    41    42    1
     3     1     2    1
     4     1    19    1
     5     1    41    1
     6     2     3   am
     7     2     5    1
     8     3     4    2
     9     3     6    1
    10     6     7    1
    11     6    10    1
    12     7     8    1
    13     7     9    1
    14    10    11    1
    15    11    12   ar
    16    11    17   ar
    17    12    13   ar
    18    13    14   ar
    19    14    15    1
    20    14    16   ar
    21    15    18    1
    22    16    17   ar
    23    19    20    2
    24    19    21   am
    25    21    23    1
    26    21    22    1
    27    23    24    1
    28    23    25    1
    29    25    26    2
    30    25    27   am
    31    27    29    1
    32    27    28    1
    33    29    34    1
    34    29    30    1
    35    34    35    1
    36    35    36    1
    37    36    37    2
    38    36    38    1
    39    38    39    1
    40    30    31    2
    41    30    32    1
    42    32    33    1



#	Name:			CHEMBL41543
#	Creating user name:	trannguyen
#	Creation time:		Wed Dec  7 14:36:25 2022


#	Modifying user name:	trannguyen
#	Modification time:	Wed Dec  7 14:36:25 2022

@<TRIPOS>MOLECULE
CHEMBL41543
 20 22 0 0 0
SMALL
GASTEIGER

@<TRIPOS>ATOM
      1 N           1.2662   31.3771   10.2060 N.am    1  UNL1       -0.3126
      2 C           1.3835   31.6338    8.8674 C.2     1  UNL1        0.3084
      3 O           0.3675   32.0183    8.2915 O.2     1  UNL1       -0.2521
      4 N           2.6720   31.5060    8.3236 N.am    1  UNL1       -0.2228
      5 C           3.7305   30.8688    9.0453 C.ar    1  UNL1        0.0556
      6 C           3.5368   29.5916    9.5963 C.ar    1  UNL1        0.0150
      7 C           4.5382   28.9809   10.3524 C.ar    1  UNL1        0.0013
      8 C           5.7426   29.6427   10.5713 C.ar    1  UNL1       -0.0002
      9 C           5.9474   30.9115   10.0307 C.ar    1  UNL1       -0.0030
     10 C           4.9445   31.5298    9.2683 C.ar    1  UNL1       -0.0078
     11 C           5.1610   32.8895    8.6763 C.3     1  UNL1        0.0323
     12 C           5.3140   32.7591    7.1704 C.3     1  UNL1        0.0323
     13 C           4.1258   32.2443    6.3835 C.ar    1  UNL1       -0.0078
     14 C           4.2702   32.3556    4.9777 C.ar    1  UNL1       -0.0030
     15 C           3.2504   31.9966    4.1026 C.ar    1  UNL1       -0.0002
     16 C           2.0603   31.5133    4.6145 C.ar    1  UNL1        0.0013
     17 C           1.9027   31.3823    5.9965 C.ar    1  UNL1        0.0150
     18 C           2.9185   31.7321    6.9152 C.ar    1  UNL1        0.0556
     19 H           0.3628   31.6282   10.5845 H       1  UNL1        0.1465
     20 H           2.0612   31.5873   10.7926 H       1  UNL1        0.1465
@<TRIPOS>BOND
     1     1     2   am
     2     1    19    1
     3     1    20    1
     4     2     3    2
     5     2     4   am
     6     4     5    1
     7     4    18    1
     8     5     6   ar
     9     5    10   ar
    10     6     7   ar
    11     7     8   ar
    12     8     9   ar
    13     9    10   ar
    14    10    11    1
    15    11    12    1
    16    12    13    1
    17    13    14   ar
    18    13    18   ar
    19    14    15   ar
    20    15    16   ar
    21    16    17   ar
    22    17    18   ar



#	Name:			CHEMBL415690
#	Creating user name:	trannguyen
#	Creation time:		Wed Dec  7 14:36:25 2022


#	Modifying user name:	trannguyen
#	Modification time:	Wed Dec  7 14:36:25 2022

@<TRIPOS>MOLECULE
CHEMBL415690
 98 105 0 0 0
SMALL
GASTEIGER

@<TRIPOS>ATOM
      1 C           9.8855   32.5224    5.6801 C.3     1  UNL1        0.1765
      2 O          10.1759   33.2112    4.4639 O.3     1  UNL1       -0.3260
      3 C           9.0499   33.7987    3.8010 C.3     1  UNL1        0.2658
      4 O           9.0935   33.3260    2.4426 O.3     1  UNL1       -0.3260
      5 C           8.3047   34.0517    1.4819 C.3     1  UNL1        0.1766
      6 C           8.4475   33.3761    0.0871 C.3     1  UNL1        0.1765
      7 O           9.7271   33.6012   -0.5455 O.3     1  UNL1       -0.3260
      8 C          10.1211   34.9757   -0.6584 C.3     1  UNL1        0.2658
      9 O           9.2022   35.7208   -1.4693 O.3     1  UNL1       -0.3260
     10 C           9.7415   36.5390   -2.5350 C.3     1  UNL1        0.1766
     11 C          10.9356   37.4326   -2.1428 C.3     1  UNL1        0.1765
     12 O          10.6298   38.4091   -1.1334 O.3     1  UNL1       -0.3260
     13 C           9.2761   38.8263   -1.0114 C.3     1  UNL1        0.2658
     14 O           9.3165   40.1356   -0.4233 O.3     1  UNL1       -0.3260
     15 C           8.7710   40.2081    0.9175 C.3     1  UNL1        0.1766
     16 C           8.7255   41.7035    1.3253 C.3     1  UNL1        0.1765
     17 O          10.0009   42.2356    1.7230 O.3     1  UNL1       -0.3260
     18 C          10.7879   41.4862    2.6431 C.3     1  UNL1        0.2658
     19 O          10.2062   41.4975    3.9541 O.3     1  UNL1       -0.3260
     20 C          11.1596   41.7716    5.0059 C.3     1  UNL1        0.1766
     21 C          11.0373   40.6532    6.0697 C.3     1  UNL1        0.1765
     22 O          10.2483   41.0538    7.2194 O.3     1  UNL1       -0.3260
     23 C           9.0556   41.7029    6.8085 C.3     1  UNL1        0.2658
     24 O           8.1423   41.8675    7.8921 O.3     1  UNL1       -0.3260
     25 C           7.7444   40.7110    8.6430 C.3     1  UNL1        0.1766
     26 C           8.5880   40.5466    9.9202 C.3     1  UNL1        0.1765
     27 O           8.3115   39.2546   10.4960 O.3     1  UNL1       -0.3260
     28 C           8.9797   38.2482    9.7474 C.3     1  UNL1        0.2658
     29 O           8.7334   36.9706   10.3209 O.3     1  UNL1       -0.3260
     30 C           9.8308   36.2137   10.8828 C.3     1  UNL1        0.1766
     31 C          11.1240   36.0785   10.0429 C.3     1  UNL1        0.1765
     32 O          10.7098   35.8913    8.6843 O.3     1  UNL1       -0.3260
     33 C          10.1614   34.5608    8.5083 C.3     1  UNL1        0.2658
     34 O           9.8169   34.5115    7.1236 O.3     1  UNL1       -0.3260
     35 C           9.0644   33.3795    6.6654 C.3     1  UNL1        0.1766
     36 C           7.8362   33.9873    5.9700 C.3     1  UNL1        0.1719
     37 O           6.6309   33.6565    6.6797 O.3     1  UNL1       -0.3794
     38 C           7.6969   33.5492    4.5115 C.3     1  UNL1        0.1964
     39 O           6.6212   34.3058    3.9326 O.3     1  UNL1       -0.3775
     40 C           8.9827   34.2544    9.5069 C.3     1  UNL1        0.1964
     41 O           7.7324   34.7952    9.0207 O.3     1  UNL1       -0.3775
     42 C           9.2546   34.7743   10.9475 C.3     1  UNL1        0.1719
     43 O          10.1395   33.8901   11.6337 O.3     1  UNL1       -0.3794
     44 C           8.5137   38.2225    8.2705 C.3     1  UNL1        0.1964
     45 O           9.6731   38.2086    7.4210 O.3     1  UNL1       -0.3775
     46 C           7.5444   39.3647    7.8949 C.3     1  UNL1        0.1719
     47 O           6.2045   38.8961    8.1855 O.3     1  UNL1       -0.3794
     48 C           9.4121   43.1198    6.2827 C.3     1  UNL1        0.1964
     49 O           8.4185   43.5599    5.3460 O.3     1  UNL1       -0.3775
     50 C          10.8089   43.1363    5.6214 C.3     1  UNL1        0.1719
     51 O          11.8221   43.5003    6.5699 O.3     1  UNL1       -0.3794
     52 C          10.9750   40.0302    2.1919 C.3     1  UNL1        0.1964
     53 O          11.8226   39.9600    1.0446 O.3     1  UNL1       -0.3775
     54 C           9.6026   39.3923    1.9310 C.3     1  UNL1        0.1719
     55 O           8.8612   39.1895    3.1398 O.3     1  UNL1       -0.3794
     56 C           8.5270   38.8299   -2.3548 C.3     1  UNL1        0.1964
     57 O           7.1534   39.2381   -2.2276 O.3     1  UNL1       -0.3775
     58 C           8.5623   37.4259   -3.0109 C.3     1  UNL1        0.1719
     59 O           8.6123   37.5804   -4.4350 O.3     1  UNL1       -0.3794
     60 C          10.1481   35.6106    0.7417 C.3     1  UNL1        0.1964
     61 O          11.1407   35.0063    1.5731 O.3     1  UNL1       -0.3775
     62 C           8.7333   35.5272    1.3618 C.3     1  UNL1        0.1719
     63 O           7.7526   36.2618    0.6072 O.3     1  UNL1       -0.3794
     64 H           6.7537   34.0247    7.5850 H       1  UNL1        0.2105
     65 H           5.8920   34.2516    4.5842 H       1  UNL1        0.2106
     66 H           7.6688   35.6992    9.3916 H       1  UNL1        0.2106
     67 H           9.9951   34.0085   12.5909 H       1  UNL1        0.2105
     68 H          10.0200   37.2839    7.4629 H       1  UNL1        0.2106
     69 H           6.1307   38.7720    9.1525 H       1  UNL1        0.2105
     70 H           7.5759   43.6233    5.8374 H       1  UNL1        0.2106
     71 H          11.6293   43.0555    7.4155 H       1  UNL1        0.2105
     72 H          11.2922   40.2244    0.2644 H       1  UNL1        0.2106
     73 H           9.0860   39.9068    3.7623 H       1  UNL1        0.2105
     74 H           6.7696   38.8043   -1.4443 H       1  UNL1        0.2106
     75 H           7.8355   38.1198   -4.6832 H       1  UNL1        0.2105
     76 H          10.8697   34.0801    1.7451 H       1  UNL1        0.2106
     77 H           7.8050   35.9473   -0.3178 H       1  UNL1        0.2105
     78 O          10.9910   31.0055    7.2285 O.3     1  UNL1       -0.3794
     79 C          11.2104   32.0498    6.2851 C.3     1  UNL1        0.1693
     80 H          11.8711   30.6800    7.4913 H       1  UNL1        0.2105
     81 C           8.2690   31.8540    0.1732 C.3     1  UNL1        0.1693
     82 O           7.5745   31.3890   -0.9871 O.3     1  UNL1       -0.3794
     83 H           8.0679   31.7625   -1.7435 H       1  UNL1        0.2105
     84 C          11.5706   38.1441   -3.3527 C.3     1  UNL1        0.1693
     85 O          11.6598   37.2346   -4.4493 O.3     1  UNL1       -0.3794
     86 H          12.0111   36.3977   -4.0870 H       1  UNL1        0.2105
     87 C           7.6256   42.0021    2.3586 C.3     1  UNL1        0.1693
     88 O           7.5358   43.3988    2.6262 O.3     1  UNL1       -0.3794
     89 H           8.2360   43.6020    3.2819 H       1  UNL1        0.2105
     90 C          12.4053   40.2038    6.6078 C.3     1  UNL1        0.1693
     91 O          12.5825   38.7956    6.4150 O.3     1  UNL1       -0.3794
     92 H          11.7436   38.4727    6.0200 H       1  UNL1        0.2105
     93 C           8.2496   41.6335   10.9540 C.3     1  UNL1        0.1693
     94 O           6.9819   42.2310   10.6803 O.3     1  UNL1       -0.3794
     95 H           6.3189   41.5336   10.6495 H       1  UNL1        0.2105
     96 C          12.1727   37.1882   10.2121 C.3     1  UNL1        0.1693
     97 O          12.3704   37.8651    8.9712 O.3     1  UNL1       -0.3794
     98 H          11.7091   38.5887    8.9466 H       1  UNL1        0.2105
@<TRIPOS>BOND
     1    78    79    1
     2    78    80    1
     3    79     1    1
     4     1     2    1
     5     1    35    1
     6     2     3    1
     7     3     4    1
     8     3    38    1
     9     4     5    1
    10     5     6    1
    11     5    62    1
    12     6     7    1
    13     6    81    1
    14    81    82    1
    15    82    83    1
    16     7     8    1
    17     8     9    1
    18     8    60    1
    19     9    10    1
    20    10    11    1
    21    10    58    1
    22    11    12    1
    23    11    84    1
    24    84    85    1
    25    85    86    1
    26    12    13    1
    27    13    14    1
    28    13    56    1
    29    14    15    1
    30    15    16    1
    31    15    54    1
    32    16    17    1
    33    16    87    1
    34    87    88    1
    35    88    89    1
    36    17    18    1
    37    18    19    1
    38    18    52    1
    39    19    20    1
    40    20    21    1
    41    20    50    1
    42    21    22    1
    43    21    90    1
    44    90    91    1
    45    91    92    1
    46    22    23    1
    47    23    24    1
    48    23    48    1
    49    24    25    1
    50    25    26    1
    51    25    46    1
    52    26    27    1
    53    26    93    1
    54    93    94    1
    55    94    95    1
    56    27    28    1
    57    28    29    1
    58    28    44    1
    59    29    30    1
    60    30    31    1
    61    30    42    1
    62    31    32    1
    63    31    96    1
    64    96    97    1
    65    97    98    1
    66    32    33    1
    67    33    34    1
    68    33    40    1
    69    34    35    1
    70    35    36    1
    71    36    38    1
    72    36    37    1
    73    37    64    1
    74    38    39    1
    75    39    65    1
    76    40    42    1
    77    40    41    1
    78    41    66    1
    79    42    43    1
    80    43    67    1
    81    44    46    1
    82    44    45    1
    83    45    68    1
    84    46    47    1
    85    47    69    1
    86    48    50    1
    87    48    49    1
    88    49    70    1
    89    50    51    1
    90    51    71    1
    91    52    54    1
    92    52    53    1
    93    53    72    1
    94    54    55    1
    95    55    73    1
    96    56    58    1
    97    56    57    1
    98    57    74    1
    99    58    59    1
   100    59    75    1
   101    60    62    1
   102    60    61    1
   103    61    76    1
   104    62    63    1
   105    63    77    1



#	Name:			CHEMBL416
#	Creating user name:	trannguyen
#	Creation time:		Wed Dec  7 14:36:25 2022


#	Modifying user name:	trannguyen
#	Modification time:	Wed Dec  7 14:36:25 2022

@<TRIPOS>MOLECULE
CHEMBL416
 16 18 0 0 0
SMALL
GASTEIGER

@<TRIPOS>ATOM
      1 C           3.7885   31.0325    9.3626 C.ar    1  UNL1        0.2073
      2 C           3.5895   31.7474    8.1793 C.ar    1  UNL1        0.1822
      3 O           4.4704   32.6200    7.6091 O.2     1  UNL1       -0.4472
      4 C           3.8916   33.0885    6.4740 C.ar    1  UNL1        0.1798
      5 C           2.6480   32.5278    6.2970 C.ar    1  UNL1        0.0438
      6 C           2.4404   31.6548    7.3984 C.ar    1  UNL1        0.0410
      7 C           1.4013   30.8004    7.8172 C.ar    1  UNL1        0.0064
      8 C           1.5555   30.0785    9.0118 C.ar    1  UNL1        0.0381
      9 C           0.5015   29.1959    9.4913 C.ar    1  UNL1        0.0098
     10 C           0.6653   28.5259   10.6355 C.ar    1  UNL1        0.0824
     11 C           1.8861   28.6408   11.4494 C.ar    1  UNL1        0.3460
     12 O           2.0104   27.9998   12.4863 O.2     1  UNL1       -0.2445
     13 O           2.8705   29.4941   10.9770 O.2     1  UNL1       -0.4178
     14 C           2.7287   30.2070    9.7621 C.ar    1  UNL1        0.1854
     15 C           5.9751   30.3545    9.6473 C.3     1  UNL1        0.2528
     16 O           4.9260   31.2055   10.1058 O.3     1  UNL1       -0.4654
@<TRIPOS>BOND
     1    15    16    1
     2    16     1    1
     3     1     2   ar
     4     1    14   ar
     5     2     3   ar
     6     2     6   ar
     7     3     4   ar
     8     4     5   ar
     9     5     6   ar
    10     6     7   ar
    11     7     8   ar
    12     8     9   ar
    13     8    14   ar
    14     9    10   ar
    15    10    11   ar
    16    11    12    2
    17    11    13   ar
    18    13    14   ar



#	Name:			CHEMBL417
#	Creating user name:	trannguyen
#	Creation time:		Wed Dec  7 14:36:25 2022


#	Modifying user name:	trannguyen
#	Modification time:	Wed Dec  7 14:36:25 2022

@<TRIPOS>MOLECULE
CHEMBL417
 46 50 0 0 0
SMALL
GASTEIGER

@<TRIPOS>ATOM
      1 C           8.7022   34.1999    2.3712 C.ar    1  UNL1        0.1418
      2 C           8.4564   34.6180    1.0535 C.ar    1  UNL1        0.0370
      3 C           7.1789   34.5568    0.5096 C.ar    1  UNL1        0.0032
      4 C           6.1142   34.1069    1.2836 C.ar    1  UNL1        0.0035
      5 C           6.3353   33.7027    2.6082 C.ar    1  UNL1        0.0451
      6 C           7.6218   33.7178    3.1541 C.ar    1  UNL1        0.0760
      7 C           7.8071   33.2012    4.5348 C.2     1  UNL1        0.2017
      8 O           8.9054   32.9877    5.0061 O.2     1  UNL1       -0.2864
      9 C           6.6131   32.8815    5.3685 C.ar    1  UNL1        0.0784
     10 C           6.7727   32.5637    6.7310 C.ar    1  UNL1        0.1349
     11 O           8.0123   32.5139    7.3140 O.3     1  UNL1       -0.5057
     12 C           5.6717   32.2828    7.5647 C.ar    1  UNL1        0.0376
     13 C           4.3965   32.1999    6.9829 C.ar    1  UNL1        0.0156
     14 C           4.2449   32.4947    5.6161 C.ar    1  UNL1        0.1328
     15 O           2.9698   32.3595    5.1304 O.3     1  UNL1       -0.5057
     16 C           5.3362   32.8841    4.8187 C.ar    1  UNL1        0.0783
     17 C           5.1519   33.2961    3.4132 C.2     1  UNL1        0.1989
     18 O           4.0313   33.3737    2.9491 O.2     1  UNL1       -0.2865
     19 C           3.1890   31.6950    7.7548 C.3     1  UNL1        0.0635
     20 C           3.3536   31.6668    9.2773 C.3     1  UNL1        0.1482
     21 O           3.1100   32.9772    9.8052 O.3     1  UNL1       -0.3793
     22 C           4.7698   31.1735    9.6371 C.3     1  UNL1        0.0688
     23 C           5.8605   32.0946    9.0595 C.3     1  UNL1        0.1454
     24 H           8.7039   32.6660    6.6272 H       1  UNL1        0.2922
     25 H           2.8199   33.0404    4.4416 H       1  UNL1        0.2922
     26 H           3.9759   33.3615   10.0529 H       1  UNL1        0.2108
     27 C          10.4318   35.6527    3.1350 C.3     1  UNL1        0.2525
     28 O           9.9449   34.3241    2.9382 O.3     1  UNL1       -0.4713
     29 C           2.2962   30.7120    9.8774 C.2     1  UNL1        0.2042
     30 O           2.4350   30.1931   10.9906 O.2     1  UNL1       -0.2910
     31 C           1.0484   30.4142    9.0390 C.3     1  UNL1        0.2044
     32 O           0.0256   31.3895    9.1940 O.3     1  UNL1       -0.3749
     33 H           0.4562   32.2608    9.1094 H       1  UNL1        0.2110
     34 O           5.7193   33.3304    9.7866 O.3     1  UNL1       -0.3283
     35 C           6.3490   33.3839   11.0665 C.3     1  UNL1        0.2368
     36 C           7.6422   32.5687   10.9806 C.3     1  UNL1        0.0793
     37 C           8.6273   33.2786   10.0558 C.3     1  UNL1        0.0855
     38 N           9.9069   32.5537    9.9363 N.3     1  UNL1       -0.3201
     39 C           8.8789   34.7090   10.5670 C.3     1  UNL1        0.1517
     40 O           9.7332   35.3900    9.6465 O.3     1  UNL1       -0.3806
     41 C           7.5449   35.4480   10.7373 C.3     1  UNL1        0.1458
     42 C           7.7488   36.7841   11.4480 C.3     1  UNL1        0.0348
     43 O           6.6276   34.6960   11.5344 O.3     1  UNL1       -0.3304
     44 H           9.7280   31.6249    9.5507 H       1  UNL1        0.1189
     45 H          10.2995   32.3939   10.8653 H       1  UNL1        0.1189
     46 H          10.3763   34.7098    9.3584 H       1  UNL1        0.2105
@<TRIPOS>BOND
     1    27    28    1
     2    28     1    1
     3     1     2   ar
     4     1     6   ar
     5     2     3   ar
     6     3     4   ar
     7     4     5   ar
     8     5     6   ar
     9     5    17    1
    10     6     7    1
    11     7     8    2
    12     7     9    1
    13     9    10   ar
    14     9    16   ar
    15    10    11    1
    16    10    12   ar
    17    11    24    1
    18    12    13   ar
    19    12    23    1
    20    13    14   ar
    21    13    19    1
    22    14    15    1
    23    14    16   ar
    24    15    25    1
    25    16    17    1
    26    17    18    2
    27    19    20    1
    28    20    22    1
    29    20    29    1
    30    20    21    1
    31    21    26    1
    32    29    30    2
    33    29    31    1
    34    31    32    1
    35    32    33    1
    36    22    23    1
    37    23    34    1
    38    34    35    1
    39    35    36    1
    40    35    43    1
    41    36    37    1
    42    37    38    1
    43    37    39    1
    44    38    44    1
    45    38    45    1
    46    39    41    1
    47    39    40    1
    48    40    46    1
    49    41    42    1
    50    41    43    1



#	Name:			CHEMBL42
#	Creating user name:	trannguyen
#	Creation time:		Wed Dec  7 14:36:25 2022


#	Modifying user name:	trannguyen
#	Modification time:	Wed Dec  7 14:36:25 2022

@<TRIPOS>MOLECULE
CHEMBL42
 24 27 0 0 0
SMALL
GASTEIGER

@<TRIPOS>ATOM
      1 C           4.2673   32.1465    8.1229 C.2     1  UNL1        0.3251
      2 N           3.2557   31.3256    8.0980 N.2     1  UNL1       -0.0388
      3 C           2.9516   30.3493    9.0538 C.ar    1  UNL1        0.2072
      4 C           1.5865   30.0669    9.2106 C.ar    1  UNL1        0.0593
      5 C           1.1584   29.0198   10.0209 C.ar    1  UNL1        0.0615
      6 CL         -0.5234   28.7016   10.1969 Cl      1  UNL1       -0.0821
      7 C           2.0839   28.2190   10.6771 C.ar    1  UNL1        0.0129
      8 C           3.4460   28.4812   10.5270 C.ar    1  UNL1        0.0192
      9 C           3.8963   29.5492    9.7260 C.ar    1  UNL1        0.0920
     10 N           5.2866   29.8132    9.6884 N.pl3   1  UNL1       -0.3094
     11 C           5.7979   31.1145    9.8729 C.ar    1  UNL1        0.0556
     12 C           6.8464   31.2955   10.7951 C.ar    1  UNL1        0.0149
     13 C           7.3300   32.5690   11.1051 C.ar    1  UNL1        0.0013
     14 C           6.7706   33.6881   10.5005 C.ar    1  UNL1        0.0003
     15 C           5.7469   33.5264    9.5688 C.ar    1  UNL1        0.0086
     16 C           5.2686   32.2441    9.2377 C.ar    1  UNL1        0.0956
     17 H           5.8279   29.1056   10.1704 H       1  UNL1        0.1523
     18 C           4.0765   33.4458    3.3446 C.3     1  UNL1        0.0898
     19 N           3.8083   32.3060    4.2168 N.3     1  UNL1       -0.2645
     20 C           5.0263   31.8552    4.9279 C.3     1  UNL1        0.1237
     21 C           5.5067   32.7847    6.0680 C.3     1  UNL1        0.2197
     22 N           4.4198   33.0357    7.0423 N.pl3   1  UNL1       -0.1877
     23 C           3.2056   33.5480    6.3677 C.3     1  UNL1        0.2197
     24 C           2.7580   32.6143    5.2187 C.3     1  UNL1        0.1237
@<TRIPOS>BOND
     1    18    19    1
     2    19    20    1
     3    19    24    1
     4    20    21    1
     5    21    22    1
     6    22     1    1
     7    22    23    1
     8     1     2    2
     9     1    16    1
    10     2     3    1
    11     3     4   ar
    12     3     9   ar
    13     4     5   ar
    14     5     6    1
    15     5     7   ar
    16     7     8   ar
    17     8     9   ar
    18     9    10    1
    19    10    11    1
    20    10    17    1
    21    11    12   ar
    22    11    16   ar
    23    12    13   ar
    24    13    14   ar
    25    14    15   ar
    26    15    16   ar
    27    23    24    1



#	Name:			CHEMBL420
#	Creating user name:	trannguyen
#	Creation time:		Wed Dec  7 14:36:25 2022


#	Modifying user name:	trannguyen
#	Modification time:	Wed Dec  7 14:36:25 2022

@<TRIPOS>MOLECULE
CHEMBL420
 18 18 0 0 0
SMALL
GASTEIGER

@<TRIPOS>ATOM
      1 N           2.4118   32.6139   10.2386 N.2     1  UNL1       -0.1091
      2 C           2.4249   31.6882    9.3335 C.2     1  UNL1        0.1376
      3 C           2.8626   30.3016    9.6205 C.ar    1  UNL1        0.0433
      4 C           1.8857   29.2984    9.7577 C.ar    1  UNL1        0.0601
      5 CL          0.1877   29.6080    9.6126 Cl      1  UNL1       -0.0822
      6 C           2.2533   27.9791   10.0532 C.ar    1  UNL1        0.0115
      7 C           3.5947   27.6394   10.1966 C.ar    1  UNL1        0.0017
      8 C           4.5710   28.6205   10.0483 C.ar    1  UNL1        0.0115
      9 C           4.2152   29.9484    9.7695 C.ar    1  UNL1        0.0601
     10 CL          5.5351   31.0526    9.5834 Cl      1  UNL1       -0.0822
     11 N           1.9494   33.8273    9.8200 N.pl3   1  UNL1       -0.1544
     12 H           0.9827   33.9651    9.5364 H       1  UNL1        0.2922
     13 N           2.9153   35.5717    8.6235 N.pl3   1  UNL1       -0.1280
     14 C           2.6980   34.9617    9.7372 C.cat   1  UNL1        0.3997
     15 N           3.2033   35.3837   10.9172 N.pl3   1  UNL1       -0.2876
     16 H           3.4608   36.4113    8.8297 H       1  UNL1        0.3062
     17 H           4.1340   35.7720   10.8715 H       1  UNL1        0.2547
     18 H           3.1275   34.6281   11.5978 H       1  UNL1        0.2547
@<TRIPOS>BOND
     1    13    14    2
     2    13    16    1
     3    14    15    1
     4    14    11    1
     5    15    17    1
     6    15    18    1
     7    11     1    1
     8    11    12    1
     9     1     2    2
    10     2     3    1
    11     3     4   ar
    12     3     9   ar
    13     4     5    1
    14     4     6   ar
    15     6     7   ar
    16     7     8   ar
    17     8     9   ar
    18     9    10    1



#	Name:			CHEMBL4213010
#	Creating user name:	trannguyen
#	Creation time:		Wed Dec  7 14:36:25 2022


#	Modifying user name:	trannguyen
#	Modification time:	Wed Dec  7 14:36:25 2022

@<TRIPOS>MOLECULE
CHEMBL4213010
 32 35 0 0 0
SMALL
GASTEIGER

@<TRIPOS>ATOM
      1 C           7.3271   32.9311    0.6262 C.3     1  UNL1        0.0003
      2 C           6.7405   34.3073    1.0019 C.3     1  UNL1        0.0003
      3 C           6.7921   35.1386   -0.2726 C.3     1  UNL1        0.0037
      4 C           8.1547   34.7870   -0.9005 C.3     1  UNL1        0.0146
      5 C           9.2711   35.5419   -0.1216 C.3     1  UNL1        0.0040
      6 C           8.2316   35.2125   -2.3898 C.2     1  UNL1       -0.0527
      7 C           8.3563   34.3357   -3.4234 C.2     1  UNL1       -0.0527
      8 C           8.2397   32.8440   -3.1707 C.3     1  UNL1        0.0214
      9 C           7.5753   32.5008   -1.8455 C.3     1  UNL1        0.0046
     10 C           8.2415   33.2233   -0.6457 C.3     1  UNL1        0.0035
     11 C           9.7056   32.7546   -0.5587 C.3     1  UNL1        0.0003
     12 C           8.6488   34.7738   -4.9017 C.3     1  UNL1        0.0147
     13 C           9.9517   34.0354   -5.3041 C.3     1  UNL1        0.0040
     14 C           7.4753   34.3068   -5.8039 C.3     1  UNL1        0.0062
     15 C           7.5486   34.7949   -7.2487 C.3     1  UNL1        0.0295
     16 C           7.6128   36.3157   -7.3407 C.3     1  UNL1        0.1104
     17 O           6.3744   36.8490   -6.8705 O.3     1  UNL1       -0.3845
     18 C           8.7976   36.9165   -6.5417 C.3     1  UNL1        0.0250
     19 C          10.1192   36.6382   -7.3082 C.3     1  UNL1        0.0024
     20 C           8.6748   38.4660   -6.5467 C.3     1  UNL1        0.0024
     21 C           8.8617   36.3405   -5.0569 C.3     1  UNL1        0.0060
     22 C           7.8935   37.0639   -4.0977 C.3     1  UNL1        0.0047
     23 C           8.1911   36.6971   -2.6496 C.3     1  UNL1        0.0214
     24 H           5.6622   36.4633   -7.4085 H       1  UNL1        0.2103
     25 C           7.8648   32.1533    1.8792 C.3     1  UNL1        0.0000
     26 C           7.3015   30.7250    1.9674 C.3     1  UNL1        0.0000
     27 C           7.5180   32.9339    3.1925 C.3     1  UNL1        0.0000
     28 C           7.0544   32.0413    4.3573 C.3     1  UNL1        0.0000
     29 C           5.6656   32.4202    4.8948 C.3     1  UNL1        0.0000
     30 C           3.6660   31.1945    3.9427 C.3     1  UNL1        0.0000
     31 C           4.5710   32.4229    3.8015 C.3     1  UNL1        0.0000
     32 C           3.7055   33.6866    3.8175 C.3     1  UNL1        0.0000
@<TRIPOS>BOND
     1    30    31    1
     2    31    32    1
     3    31    29    1
     4    29    28    1
     5    28    27    1
     6    27    25    1
     7    25    26    1
     8    25     1    1
     9     1     2    1
    10     1    10    1
    11     2     3    1
    12     3     4    1
    13     4     6    1
    14     4    10    1
    15     4     5    1
    16     6     7    2
    17     6    23    1
    18     7     8    1
    19     7    12    1
    20     8     9    1
    21     9    10    1
    22    10    11    1
    23    12    14    1
    24    12    21    1
    25    12    13    1
    26    14    15    1
    27    15    16    1
    28    16    18    1
    29    16    17    1
    30    17    24    1
    31    18    21    1
    32    18    19    1
    33    18    20    1
    34    21    22    1
    35    22    23    1



#	Name:			CHEMBL4243267
#	Creating user name:	trannguyen
#	Creation time:		Wed Dec  7 14:36:25 2022


#	Modifying user name:	trannguyen
#	Modification time:	Wed Dec  7 14:36:25 2022

@<TRIPOS>MOLECULE
CHEMBL4243267
 25 27 0 0 0
SMALL
GASTEIGER

@<TRIPOS>ATOM
      1 C           4.4573   32.4779    3.6231 C.3     1  UNL1        0.1362
      2 C           4.1623   33.9030    4.1456 C.3     1  UNL1        0.0897
      3 C           2.7453   34.0303    4.7274 C.3     1  UNL1        0.1251
      4 O           2.6545   35.1962    5.5439 O.3     1  UNL1       -0.3839
      5 C           2.3273   32.7971    5.5516 C.3     1  UNL1        0.1248
      6 C           2.4179   31.6078    4.6310 C.3     1  UNL1        0.1938
      7 N           3.8669   31.4363    4.4953 N.4     1  UNL1        0.4919
      8 O           4.3927   31.7228    5.8457 O.3     1  UNL1       -0.2596
      9 C           3.3763   32.4297    6.6013 C.3     1  UNL1        0.1985
     10 H           2.9101   35.9597    4.9962 H       1  UNL1        0.2103
     11 C           2.8809   31.5792    7.7636 C.ar    1  UNL1        0.0105
     12 C           1.5247   31.2488    7.9158 C.ar    1  UNL1       -0.0017
     13 C           1.0873   30.4377    8.9642 C.ar    1  UNL1       -0.0002
     14 C           2.0090   29.9325    9.8786 C.ar    1  UNL1       -0.0000
     15 C           3.3595   30.2331    9.7364 C.ar    1  UNL1       -0.0002
     16 C           3.7981   31.0472    8.6879 C.ar    1  UNL1       -0.0017
     17 C           5.9825   32.2639    3.4480 C.3     1  UNL1        0.0604
     18 C           6.8219   33.3329    4.1586 C.3     1  UNL1        0.0060
     19 C           8.0989   32.7618    4.7843 C.3     1  UNL1        0.0002
     20 C           7.9395   32.6767    6.3028 C.3     1  UNL1        0.0000
     21 C           8.1886   31.2667    6.8404 C.3     1  UNL1        0.0000
     22 C           7.4204   30.9869    8.1381 C.3     1  UNL1        0.0000
     23 C           8.0329   31.6952    9.3496 C.3     1  UNL1        0.0000
     24 C           7.2145   33.1823   11.2003 C.3     1  UNL1        0.0000
     25 C           7.0309   31.8497   10.4897 C.3     1  UNL1        0.0000
@<TRIPOS>UNITY_ATOM_ATTR
7 1
charge 1
@<TRIPOS>BOND
     1    24    25    1
     2    25    23    1
     3    23    22    1
     4    22    21    1
     5    21    20    1
     6    20    19    1
     7    19    18    1
     8    18    17    1
     9     1     2    1
    10     1     7    1
    11     1    17    1
    12     2     3    1
    13     3     4    1
    14     3     5    1
    15     4    10    1
    16     5     6    1
    17     5     9    1
    18     6     7    1
    19     7     8    1
    20     8     9    1
    21     9    11    1
    22    11    12   ar
    23    11    16   ar
    24    12    13   ar
    25    13    14   ar
    26    14    15   ar
    27    15    16   ar



#	Name:			CHEMBL428
#	Creating user name:	trannguyen
#	Creation time:		Wed Dec  7 14:36:25 2022


#	Modifying user name:	trannguyen
#	Modification time:	Wed Dec  7 14:36:25 2022

@<TRIPOS>MOLECULE
CHEMBL428
 33 37 0 0 0
SMALL
GASTEIGER

@<TRIPOS>ATOM
      1 C           4.6308   33.1755    5.1374 C.ar    1  UNL1        0.1610
      2 N           5.1499   32.7686    6.3285 N.ar    1  UNL1       -0.2109
      3 C           4.4012   32.0897    7.2402 C.ar    1  UNL1        0.1524
      4 C           3.0680   31.7842    6.9362 C.ar    1  UNL1        0.0760
      5 C           2.5217   32.1520    5.7065 C.ar    1  UNL1        0.0387
      6 C           3.3135   32.8405    4.8052 C.ar    1  UNL1        0.1717
      7 F           2.7859   33.1739    3.6171 F       1  UNL1       -0.2012
      8 C           2.2206   31.0629    7.8980 C.ar    1  UNL1        0.2063
      9 O           1.0475   30.7946    7.6459 O.2     1  UNL1       -0.2862
     10 C           2.8024   30.6878    9.1919 C.ar    1  UNL1        0.1318
     11 C           4.0892   31.0067    9.3915 C.ar    1  UNL1        0.0911
     12 N           4.9617   31.6554    8.5101 N.ar    1  UNL1       -0.2877
     13 N           8.8351   32.1247    1.7087 N.3     1  UNL1       -0.3221
     14 C           7.8813   33.0479    2.3220 C.3     1  UNL1        0.0542
     15 C           6.4963   32.5567    2.6353 C.3     1  UNL1        0.0370
     16 C           5.3329   33.4883    2.8223 C.3     1  UNL1        0.0936
     17 N           5.4353   33.9056    4.2353 N.pl3   1  UNL1       -0.2913
     18 C           6.8711   33.9154    4.5977 C.3     1  UNL1        0.0936
     19 C           7.4636   32.8259    3.7482 C.3     1  UNL1        0.0370
     20 H           8.6834   31.1645    2.0169 H       1  UNL1        0.1188
     21 H           9.7908   32.3556    1.9808 H       1  UNL1        0.1188
     22 C           6.3530   31.8363    8.8804 C.ar    1  UNL1        0.0929
     23 C           7.3650   30.9935    8.3800 C.ar    1  UNL1        0.0221
     24 C           8.7081   31.1363    8.7543 C.ar    1  UNL1        0.0313
     25 C           9.0739   32.1453    9.6298 C.ar    1  UNL1        0.1425
     26 F          10.3569   32.2815    9.9865 F       1  UNL1       -0.2041
     27 C           8.1254   33.0178   10.1294 C.ar    1  UNL1        0.0608
     28 C           6.7889   32.8620    9.7559 C.ar    1  UNL1        0.1584
     29 F           5.9185   33.7300   10.2946 F       1  UNL1       -0.2026
     30 C           2.0448   30.0093   10.2679 C.2     1  UNL1        0.3427
     31 O           1.7163   28.8381   10.2195 O.2     1  UNL1       -0.2449
     32 O           1.7531   30.7964   11.3276 O.3     1  UNL1       -0.4770
     33 H           2.0691   31.7288   11.2477 H       1  UNL1        0.2954
@<TRIPOS>BOND
     1    13    20    1
     2    13    21    1
     3    14    15    1
     4    14    19    1
     5    14    13    1
     6    15    16    1
     7    15    19    1
     8    16    17    1
     9    17    18    1
    10    17     1    1
    11     1     2   ar
    12     1     6   ar
    13     2     3   ar
    14     3     4   ar
    15     3    12   ar
    16     4     5   ar
    17     4     8   ar
    18     5     6   ar
    19     6     7    1
    20     8     9    2
    21     8    10   ar
    22    10    30    1
    23    10    11   ar
    24    30    31    2
    25    30    32    1
    26    32    33    1
    27    11    12   ar
    28    12    22    1
    29    22    23   ar
    30    22    28   ar
    31    23    24   ar
    32    24    25   ar
    33    25    26    1
    34    25    27   ar
    35    27    28   ar
    36    28    29    1
    37    18    19    1



#	Name:			CHEMBL429
#	Creating user name:	trannguyen
#	Creation time:		Wed Dec  7 14:36:25 2022


#	Modifying user name:	trannguyen
#	Modification time:	Wed Dec  7 14:36:25 2022

@<TRIPOS>MOLECULE
CHEMBL429
 29 30 0 0 0
SMALL
GASTEIGER

@<TRIPOS>ATOM
      1 C           3.2234   32.5776    9.0683 C.3     1  UNL1        0.1484
      2 O           2.6504   33.4289    8.0716 O.3     1  UNL1       -0.3786
      3 H           2.8796   33.0019    7.2238 H       1  UNL1        0.2108
      4 C           2.3340   31.3677    9.3135 C.ar    1  UNL1        0.0059
      5 C           0.9460   31.4346    9.1334 C.ar    1  UNL1        0.0012
      6 C           0.1251   30.3452    9.4261 C.ar    1  UNL1        0.0365
      7 C           0.6801   29.1690    9.9285 C.ar    1  UNL1        0.1379
      8 O          -0.1668   28.1344   10.2407 O.3     1  UNL1       -0.5054
      9 C           2.0654   29.0614   10.1223 C.ar    1  UNL1        0.0865
     10 C           2.8818   30.1634    9.7965 C.ar    1  UNL1        0.0056
     11 H          -1.0842   28.4341   10.1146 H       1  UNL1        0.2922
     12 C           2.7478   27.8563   10.6866 C.2     1  UNL1        0.2457
     13 N           3.9715   27.5246   10.1666 N.am    1  UNL1       -0.3252
     14 O           2.2422   27.1841   11.5646 O.2     1  UNL1       -0.2703
     15 H           4.3970   28.0908    9.4454 H       1  UNL1        0.1453
     16 H           4.4462   26.7072   10.5177 H       1  UNL1        0.1453
     17 C           4.6818   32.2450    8.6592 C.3     1  UNL1        0.1028
     18 N           5.5110   33.4447    8.3801 N.3     1  UNL1       -0.2962
     19 H           4.9164   34.1627    7.9603 H       1  UNL1        0.1233
     20 C           7.8241   32.5269    8.2041 C.3     1  UNL1        0.0171
     21 C           6.6272   33.1405    7.4568 C.3     1  UNL1        0.0544
     22 C           6.1900   32.1822    6.3162 C.3     1  UNL1        0.0204
     23 C           5.6417   32.8964    5.0712 C.3     1  UNL1        0.0277
     24 C           4.1325   32.8036    4.9522 C.ar    1  UNL1       -0.0221
     25 C           3.4708   31.5980    5.2280 C.ar    1  UNL1       -0.0043
     26 C           2.0788   31.5074    5.1303 C.ar    1  UNL1       -0.0003
     27 C           1.3306   32.6186    4.7485 C.ar    1  UNL1       -0.0000
     28 C           1.9748   33.8216    4.4668 C.ar    1  UNL1       -0.0003
     29 C           3.3671   33.9148    4.5686 C.ar    1  UNL1       -0.0043
@<TRIPOS>BOND
     1    20    21    1
     2    21    22    1
     3    21    18    1
     4    22    23    1
     5    23    24    1
     6    24    25   ar
     7    24    29   ar
     8    25    26   ar
     9    26    27   ar
    10    27    28   ar
    11    28    29   ar
    12    18    17    1
    13    18    19    1
    14    17     1    1
    15     1     2    1
    16     1     4    1
    17     2     3    1
    18     4     5   ar
    19     4    10   ar
    20     5     6   ar
    21     6     7   ar
    22     7     8    1
    23     7     9   ar
    24     8    11    1
    25     9    12    1
    26     9    10   ar
    27    12    13   am
    28    12    14    2
    29    13    15    1
    30    13    16    1



#	Name:			CHEMBL434
#	Creating user name:	trannguyen
#	Creation time:		Wed Dec  7 14:36:25 2022


#	Modifying user name:	trannguyen
#	Modification time:	Wed Dec  7 14:36:25 2022

@<TRIPOS>MOLECULE
CHEMBL434
 19 19 0 0 0
SMALL
GASTEIGER

@<TRIPOS>ATOM
      1 C           1.9048   30.4421    9.1472 C.ar    1  UNL1        0.0088
      2 C           3.1647   29.9811    9.5673 C.ar    1  UNL1        0.0014
      3 C           3.2883   28.8528   10.3861 C.ar    1  UNL1        0.0395
      4 C           2.1373   28.1812   10.7792 C.ar    1  UNL1        0.1675
      5 O           2.1909   27.0734   11.5821 O.3     1  UNL1       -0.5029
      6 C           0.8879   28.6226   10.3653 C.ar    1  UNL1        0.1672
      7 O          -0.2378   27.9550   10.7584 O.3     1  UNL1       -0.5029
      8 C           0.7556   29.7452    9.5557 C.ar    1  UNL1        0.0379
      9 H           3.1250   26.8821   11.7666 H       1  UNL1        0.2923
     10 H           0.1000   27.2110   11.2968 H       1  UNL1        0.2923
     11 C           1.7607   31.6983    8.3114 C.3     1  UNL1        0.1485
     12 O           0.3830   32.0780    8.2220 O.3     1  UNL1       -0.3786
     13 H           0.1432   31.9938    7.2802 H       1  UNL1        0.2108
     14 C           2.3847   31.5621    6.8930 C.3     1  UNL1        0.1028
     15 N           1.3734   31.3128    5.8428 N.3     1  UNL1       -0.2962
     16 H           1.2435   30.2993    5.7739 H       1  UNL1        0.1233
     17 C           1.9848   33.3253    4.6040 C.3     1  UNL1        0.0171
     18 C           1.7837   31.8085    4.5180 C.3     1  UNL1        0.0541
     19 C           3.0765   31.1510    4.0346 C.3     1  UNL1        0.0171
@<TRIPOS>BOND
     1    17    18    1
     2    18    19    1
     3    18    15    1
     4    15    14    1
     5    15    16    1
     6    14    11    1
     7    11    12    1
     8    11     1    1
     9    12    13    1
    10     1     2   ar
    11     1     8   ar
    12     2     3   ar
    13     3     4   ar
    14     4     5    1
    15     4     6   ar
    16     5     9    1
    17     6     7    1
    18     6     8   ar
    19     7    10    1



#	Name:			CHEMBL435
#	Creating user name:	trannguyen
#	Creation time:		Wed Dec  7 14:36:25 2022


#	Modifying user name:	trannguyen
#	Modification time:	Wed Dec  7 14:36:25 2022

@<TRIPOS>MOLECULE
CHEMBL435
 21 22 0 0 0
SMALL
GASTEIGER

@<TRIPOS>ATOM
      1 C           2.7434   29.0115   10.2660 C.ar    1  UNL1        0.1336
      2 C           1.9302   29.9955    9.6919 C.ar    1  UNL1        0.0419
      3 C           2.5231   31.0553    8.9971 C.ar    1  UNL1        0.1364
      4 C           3.9056   31.1712    8.8464 C.ar    1  UNL1        0.0654
      5 C           4.6979   30.1934    9.4651 C.ar    1  UNL1        0.0284
      6 C           4.1315   29.1102   10.1598 C.ar    1  UNL1        0.0775
      7 CL          5.2366   27.9661   10.8337 Cl      1  UNL1       -0.0808
      8 N           4.5273   32.2728    8.2595 N.pl3   1  UNL1       -0.3172
      9 C           3.7629   33.1564    7.4127 C.3     1  UNL1        0.1822
     10 N           2.5637   33.5745    8.1001 N.3     1  UNL1       -0.1598
     11 S           1.4978   32.2983    8.3020 S.O2    1  UNL1        0.0628
     12 O           0.5227   32.7096    9.2854 O.2     1  UNL1       -0.1529
     13 O           1.1064   31.8579    6.9810 O.2     1  UNL1       -0.1529
     14 H           5.4603   32.0825    7.9045 H       1  UNL1        0.1481
     15 H           2.0854   34.3466    7.6418 H       1  UNL1        0.1506
     16 N           0.3351   27.9459   10.8506 N.3     1  UNL1       -0.2034
     17 S           1.9683   27.6897   11.1403 S.O2    1  UNL1        0.0580
     18 O           2.1244   27.9166   12.5593 O.2     1  UNL1       -0.1532
     19 O           2.3226   26.4333   10.5272 O.2     1  UNL1       -0.1532
     20 H          -0.1512   28.1046   11.7342 H       1  UNL1        0.1442
     21 H          -0.0449   27.1696   10.3060 H       1  UNL1        0.1442
@<TRIPOS>BOND
     1    16    17    1
     2    16    20    1
     3    16    21    1
     4    17    18    2
     5    17    19    2
     6    17     1    1
     7     1     2   ar
     8     1     6   ar
     9     2     3   ar
    10     3     4   ar
    11     3    11    1
    12     4     5   ar
    13     4     8    1
    14     5     6   ar
    15     6     7    1
    16     8     9    1
    17     8    14    1
    18     9    10    1
    19    10    11    1
    20    10    15    1
    21    11    12    2
    22    11    13    2



#	Name:			CHEMBL437
#	Creating user name:	trannguyen
#	Creation time:		Wed Dec  7 14:36:25 2022


#	Modifying user name:	trannguyen
#	Modification time:	Wed Dec  7 14:36:25 2022

@<TRIPOS>MOLECULE
CHEMBL437
 19 20 0 0 0
SMALL
GASTEIGER

@<TRIPOS>ATOM
      1 S           1.4937   31.6325    8.0415 S.O2    1  UNL1        0.0751
      2 O           0.1422   32.1222    8.1964 O.2     1  UNL1       -0.1499
      3 O           2.6420   32.4998    8.2106 O.2     1  UNL1       -0.1499
      4 N           2.1759   27.0805   11.8434 N.pl3   1  UNL1       -0.3570
      5 C           2.0069   28.2137   11.0399 C.ar    1  UNL1        0.0416
      6 C           3.1230   28.8923   10.5388 C.ar    1  UNL1        0.0155
      7 C           2.9739   29.9385    9.6241 C.ar    1  UNL1        0.0214
      8 C           1.6976   30.2749    9.1698 C.ar    1  UNL1        0.1253
      9 C           0.5751   29.5864    9.6341 C.ar    1  UNL1        0.0214
     10 C           0.7401   28.5393   10.5442 C.ar    1  UNL1        0.0155
     11 H           3.0232   27.0956   12.4028 H       1  UNL1        0.1424
     12 H           1.3582   26.8407   12.3956 H       1  UNL1        0.1424
     13 N           1.5479   30.8271    6.5442 N.pl3   1  UNL1       -0.1937
     14 H           0.5646   30.6521    6.3252 H       1  UNL1        0.1758
     15 C           1.9822   31.7309    5.5435 C.ar    1  UNL1        0.1786
     16 N           1.1118   32.5605    5.0274 N.ar    1  UNL1       -0.2214
     17 C           1.7653   33.3850    4.1314 C.ar    1  UNL1        0.1079
     18 C           3.0918   33.0823    3.9012 C.ar    1  UNL1        0.0588
     19 S           3.5499   31.7399    4.8698 S.2     1  UNL1       -0.0497
@<TRIPOS>BOND
     1     4     5    1
     2     4    11    1
     3     4    12    1
     4     5     6   ar
     5     5    10   ar
     6     6     7   ar
     7     7     8   ar
     8     8     1    1
     9     8     9   ar
    10     1     2    2
    11     1     3    2
    12     1    13    1
    13    13    15    1
    14    13    14    1
    15    15    16   ar
    16    15    19   ar
    17    16    17   ar
    18    17    18   ar
    19    18    19   ar
    20     9    10   ar



#	Name:			CHEMBL437002
#	Creating user name:	trannguyen
#	Creation time:		Wed Dec  7 14:36:25 2022


#	Modifying user name:	trannguyen
#	Modification time:	Wed Dec  7 14:36:25 2022

@<TRIPOS>MOLECULE
CHEMBL437002
 22 24 0 0 0
SMALL
GASTEIGER

@<TRIPOS>ATOM
      1 O           9.3335   34.8687    8.1541 O.2     1  UNL1       -0.2698
      2 C           8.6811   34.7551    9.2001 C.2     1  UNL1        0.2512
      3 N           7.8677   33.6373    9.4310 N.am    1  UNL1       -0.2760
      4 C           7.8170   32.6200    8.3755 C.3     1  UNL1        0.0937
      5 C           7.6724   31.2099    8.9513 C.3     1  UNL1        0.0219
      6 C           6.5172   31.0895    9.9650 C.3     1  UNL1        0.0078
      7 C           6.6972   32.1869   11.0291 C.3     1  UNL1        0.0219
      8 C           6.7603   33.5742   10.3893 C.3     1  UNL1        0.0937
      9 C           8.8439   35.8239   10.2194 C.ar    1  UNL1        0.0810
     10 C           9.7235   35.6941   11.3045 C.ar    1  UNL1        0.0068
     11 C           9.8556   36.7245   12.2415 C.ar    1  UNL1        0.0003
     12 C           9.1767   37.9275   12.0588 C.ar    1  UNL1        0.0023
     13 C           8.3578   38.0952   10.9446 C.ar    1  UNL1        0.0298
     14 C           8.1860   37.0459   10.0410 C.ar    1  UNL1        0.1445
     15 F           7.3624   37.2519    9.0026 F       1  UNL1       -0.2040
     16 C           5.1249   31.1657    9.2929 C.3     1  UNL1        0.0265
     17 C           4.2220   29.9936    9.6200 C.ar    1  UNL1       -0.0222
     18 C           4.7679   28.7262    9.8744 C.ar    1  UNL1       -0.0043
     19 C           3.9418   27.6473   10.1971 C.ar    1  UNL1       -0.0003
     20 C           2.5612   27.8203   10.2612 C.ar    1  UNL1       -0.0000
     21 C           2.0056   29.0705    9.9978 C.ar    1  UNL1       -0.0003
     22 C           2.8307   30.1523    9.6830 C.ar    1  UNL1       -0.0043
@<TRIPOS>BOND
     1     1     2    2
     2     2     9    1
     3     2     3   am
     4     9    10   ar
     5     9    14   ar
     6    10    11   ar
     7    11    12   ar
     8    12    13   ar
     9    13    14   ar
    10    14    15    1
    11     3     4    1
    12     3     8    1
    13     4     5    1
    14     5     6    1
    15     6    16    1
    16     6     7    1
    17    16    17    1
    18    17    18   ar
    19    17    22   ar
    20    18    19   ar
    21    19    20   ar
    22    20    21   ar
    23    21    22   ar
    24     7     8    1



#	Name:			CHEMBL44
#	Creating user name:	trannguyen
#	Creation time:		Wed Dec  7 14:36:25 2022


#	Modifying user name:	trannguyen
#	Modification time:	Wed Dec  7 14:36:25 2022

@<TRIPOS>MOLECULE
CHEMBL44
 23 25 0 0 0
SMALL
GASTEIGER

@<TRIPOS>ATOM
      1 O           4.1310   32.1767    8.3583 O.2     1  UNL1       -0.2863
      2 C           4.0517   31.1886    9.0781 C.ar    1  UNL1        0.2045
      3 C           5.2761   30.5971    9.6996 C.ar    1  UNL1        0.0767
      4 C           5.1117   29.5131   10.4715 C.ar    1  UNL1        0.1826
      5 O           3.9340   28.8690   10.7423 O.2     1  UNL1       -0.4500
      6 C           2.7836   29.3825   10.1984 C.ar    1  UNL1        0.1544
      7 C           1.6062   28.6984   10.5169 C.ar    1  UNL1        0.0744
      8 C           0.3972   29.1564   10.0112 C.ar    1  UNL1        0.1397
      9 O          -0.7779   28.5263   10.2930 O.3     1  UNL1       -0.5053
     10 C           0.3471   30.2817    9.1971 C.ar    1  UNL1        0.0735
     11 C           1.5271   30.9615    8.8810 C.ar    1  UNL1        0.1427
     12 O           1.4460   32.0669    8.0832 O.3     1  UNL1       -0.5052
     13 C           2.7607   30.5156    9.3789 C.ar    1  UNL1        0.1073
     14 H          -0.6008   27.7610   10.8659 H       1  UNL1        0.2922
     15 H           0.5280   32.2199    7.8089 H       1  UNL1        0.2922
     16 C           6.6200   31.1835    9.5193 C.ar    1  UNL1        0.0063
     17 C           7.1376   32.0821   10.4650 C.ar    1  UNL1        0.0033
     18 C           8.4116   32.6365   10.3075 C.ar    1  UNL1        0.0366
     19 C           9.1746   32.2914    9.1986 C.ar    1  UNL1        0.1337
     20 O          10.4210   32.8081    9.0044 O.3     1  UNL1       -0.5055
     21 C           8.6837   31.4080    8.2462 C.ar    1  UNL1        0.0366
     22 C           7.4087   30.8583    8.4032 C.ar    1  UNL1        0.0033
     23 H          10.6046   33.4425    9.7167 H       1  UNL1        0.2922
@<TRIPOS>BOND
     1     1     2    2
     2     2     3   ar
     3     2    13   ar
     4     3    16    1
     5     3     4   ar
     6    16    17   ar
     7    16    22   ar
     8    17    18   ar
     9    18    19   ar
    10    19    20    1
    11    19    21   ar
    12    20    23    1
    13    21    22   ar
    14     4     5   ar
    15     5     6   ar
    16     6     7   ar
    17     6    13   ar
    18     7     8   ar
    19     8     9    1
    20     8    10   ar
    21     9    14    1
    22    10    11   ar
    23    11    12    1
    24    11    13   ar
    25    12    15    1



#	Name:			CHEMBL441687
#	Creating user name:	trannguyen
#	Creation time:		Wed Dec  7 14:36:25 2022


#	Modifying user name:	trannguyen
#	Modification time:	Wed Dec  7 14:36:25 2022

@<TRIPOS>MOLECULE
CHEMBL441687
 66 72 0 0 0
SMALL
GASTEIGER

@<TRIPOS>ATOM
      1 C          11.2247   33.1263    6.7793 C.3     1  UNL1        0.0024
      2 C          10.0484   33.7671    7.5440 C.3     1  UNL1        0.0251
      3 C          10.3265   33.4586    9.0440 C.3     1  UNL1        0.0024
      4 C           8.6742   33.1328    7.1422 C.3     1  UNL1        0.1177
      5 C           8.2920   33.4971    5.7062 C.3     1  UNL1        0.0297
      6 C           8.1721   35.0152    5.5316 C.3     1  UNL1        0.0029
      7 C           9.4520   35.8070    5.9210 C.3     1  UNL1        0.0070
      8 C          10.4958   35.5166    4.8005 C.3     1  UNL1        0.0004
      9 C           9.9001   35.3175    7.3393 C.3     1  UNL1        0.0027
     10 C          11.0514   36.1602    7.8848 C.3     1  UNL1        0.0001
     11 C          10.4565   37.4985    8.2911 C.3     1  UNL1        0.0007
     12 C           9.8792   38.2893    7.0972 C.3     1  UNL1        0.0100
     13 C          11.1280   38.9885    6.4502 C.3     1  UNL1        0.0007
     14 C           9.2637   37.3894    5.9066 C.3     1  UNL1        0.0621
     15 C           7.9661   37.9937    5.3658 C.2     1  UNL1        0.1721
     16 O           6.9846   37.4154    4.9112 O.2     1  UNL1       -0.2914
     17 C           7.9598   39.4650    5.2902 C.2     1  UNL1        0.0289
     18 C           8.3838   40.1726    6.3517 C.2     1  UNL1       -0.0423
     19 C           8.3625   41.6971    6.2868 C.3     1  UNL1        0.0189
     20 C           8.7360   42.2361    4.8839 C.3     1  UNL1        0.0146
     21 C           8.7863   43.7767    4.7141 C.3     1  UNL1        0.0897
     22 C           9.8704   44.0943    3.6542 C.3     1  UNL1        0.0111
     23 C           9.1560   44.5632    6.0067 C.3     1  UNL1        0.0106
     24 C           8.7401   43.8945    7.3242 C.3     1  UNL1        0.0008
     25 C           9.1974   42.4186    7.3714 C.3     1  UNL1        0.0035
     26 C          10.7342   42.4066    7.1637 C.3     1  UNL1        0.0003
     27 C           8.8704   41.7645    8.7258 C.3     1  UNL1        0.0006
     28 C           9.3518   40.3054    8.7700 C.3     1  UNL1        0.0038
     29 C           8.8111   39.4000    7.6143 C.3     1  UNL1        0.0156
     30 C           7.5456   38.7170    8.2464 C.3     1  UNL1        0.0041
     31 C           7.4305   44.2904    4.1878 C.2     1  UNL1        0.3127
     32 O           6.3616   44.1254    4.7538 O.2     1  UNL1       -0.2503
     33 O           7.4926   44.9761    3.0211 O.3     1  UNL1       -0.4802
     34 H           8.3734   45.0543    2.6155 H       1  UNL1        0.2951
     35 O           7.6899   33.6478    8.0639 O.3     1  UNL1       -0.3312
     36 C           6.8021   32.7048    8.6584 C.3     1  UNL1        0.2664
     37 O           7.2990   32.2990    9.9299 O.3     1  UNL1       -0.3172
     38 C           7.5021   33.4240   10.8097 C.3     1  UNL1        0.2446
     39 C           6.2597   34.3063   10.9756 C.3     1  UNL1        0.1780
     40 O           6.6003   35.5911   11.5281 O.3     1  UNL1       -0.3790
     41 C           5.5056   34.5740    9.6591 C.3     1  UNL1        0.1724
     42 O           4.2030   35.0882    9.9922 O.3     1  UNL1       -0.3794
     43 C           5.3816   33.3059    8.8021 C.3     1  UNL1        0.2030
     44 H           7.2029   36.0509   10.9159 H       1  UNL1        0.2106
     45 H           4.3487   35.8268   10.6148 H       1  UNL1        0.2105
     46 C           7.9740   32.8151   12.1168 C.2     1  UNL1        0.3439
     47 O           7.3035   32.1500   12.8886 O.2     1  UNL1       -0.2475
     48 O           9.2421   33.1567   12.4358 O.3     1  UNL1       -0.4785
     49 H           9.6428   33.6455   11.6845 H       1  UNL1        0.2951
     50 O           4.7688   33.6475    7.5459 O.3     1  UNL1       -0.3233
     51 C           4.3329   32.5794    6.6975 C.3     1  UNL1        0.2663
     52 O           5.0909   32.6868    5.4914 O.3     1  UNL1       -0.3172
     53 C           4.7935   31.6762    4.5344 C.3     1  UNL1        0.2446
     54 C           3.3585   31.7875    4.0423 C.3     1  UNL1        0.1780
     55 O           3.0489   30.7072    3.1524 O.3     1  UNL1       -0.3790
     56 C           2.4414   31.6545    5.2487 C.3     1  UNL1        0.1720
     57 O           1.0871   31.8598    4.8217 O.3     1  UNL1       -0.3794
     58 C           2.8101   32.6029    6.3963 C.3     1  UNL1        0.1965
     59 O           2.0302   32.1924    7.5415 O.3     1  UNL1       -0.3775
     60 H           2.1011   30.8163    2.9353 H       1  UNL1        0.2106
     61 H           0.5693   32.0938    5.6157 H       1  UNL1        0.2105
     62 H           2.1809   31.2427    7.6988 H       1  UNL1        0.2106
     63 C           5.7303   31.7603    3.3440 C.2     1  UNL1        0.3439
     64 O           6.1182   32.8009    2.8161 O.2     1  UNL1       -0.2475
     65 O           6.1333   30.5497    2.9079 O.3     1  UNL1       -0.4785
     66 H           5.8348   29.8372    3.5271 H       1  UNL1        0.2951
@<TRIPOS>BOND
     1     1     2    1
     2     2     4    1
     3     2     9    1
     4     2     3    1
     5     4     5    1
     6     4    35    1
     7    35    36    1
     8    36    37    1
     9    36    43    1
    10    37    38    1
    11    38    46    1
    12    38    39    1
    13    46    47    2
    14    46    48    1
    15    48    49    1
    16    39    41    1
    17    39    40    1
    18    40    44    1
    19    41    42    1
    20    41    43    1
    21    42    45    1
    22    43    50    1
    23    51    52    1
    24    51    58    1
    25    51    50    1
    26    52    53    1
    27    53    63    1
    28    53    54    1
    29    63    64    2
    30    63    65    1
    31    65    66    1
    32    54    56    1
    33    54    55    1
    34    55    60    1
    35    56    57    1
    36    56    58    1
    37    57    61    1
    38    58    59    1
    39    59    62    1
    40     5     6    1
    41     6     7    1
    42     7     9    1
    43     7    14    1
    44     7     8    1
    45     9    10    1
    46    10    11    1
    47    11    12    1
    48    12    14    1
    49    12    29    1
    50    12    13    1
    51    14    15    1
    52    15    17    1
    53    15    16    2
    54    17    18    2
    55    18    19    1
    56    18    29    1
    57    19    20    1
    58    19    25    1
    59    20    21    1
    60    21    23    1
    61    21    31    1
    62    21    22    1
    63    31    32    2
    64    31    33    1
    65    33    34    1
    66    23    24    1
    67    24    25    1
    68    25    27    1
    69    25    26    1
    70    27    28    1
    71    28    29    1
    72    29    30    1



#	Name:			CHEMBL444633
#	Creating user name:	trannguyen
#	Creation time:		Wed Dec  7 14:36:25 2022


#	Modifying user name:	trannguyen
#	Modification time:	Wed Dec  7 14:36:25 2022

@<TRIPOS>MOLECULE
CHEMBL444633
 66 71 0 0 0
SMALL
GASTEIGER

@<TRIPOS>ATOM
      1 C          11.7316   37.5531    6.0045 C.3     1  UNL1        0.1438
      2 C          11.6736   36.9864    4.5961 C.2     1  UNL1        0.0431
      3 C          10.8250   36.0981    4.0542 C.2     1  UNL1        0.1742
      4 O           9.7341   35.5672    4.6865 O.2     1  UNL1       -0.4400
      5 C           9.3010   34.2723    4.2252 C.3     1  UNL1        0.3263
      6 C           8.6099   34.3410    2.8709 C.3     1  UNL1        0.1003
      7 O          10.3875   33.3023    4.2090 O.3     1  UNL1       -0.4430
      8 C          10.3393   32.7099    5.4498 C.ar    1  UNL1        0.1444
      9 C          11.4400   32.1414    6.0783 C.ar    1  UNL1        0.0461
     10 C          12.7258   31.9368    5.3389 C.3     1  UNL1        0.0374
     11 C          11.3098   31.9164    7.4595 C.ar    1  UNL1        0.1356
     12 O          12.3747   31.4903    8.2025 O.3     1  UNL1       -0.5056
     13 C          10.0759   32.1256    8.1133 C.ar    1  UNL1        0.0753
     14 C           8.9225   32.3598    7.3661 C.ar    1  UNL1        0.0305
     15 C           9.1078   32.7902    6.0763 C.ar    1  UNL1        0.0775
     16 C           8.3298   33.7136    5.2763 C.2     1  UNL1        0.2514
     17 O           7.1916   34.0460    5.5006 O.2     1  UNL1       -0.2836
     18 C           7.6435   32.1583    8.0349 C.2     1  UNL1        0.0925
     19 N           6.5297   31.7085    7.5113 N.2     1  UNL1       -0.2545
     20 C           5.6242   31.5970    8.7192 C.3     1  UNL1        0.1430
     21 C           4.1949   32.0747    8.4365 C.3     1  UNL1        0.0586
     22 C           3.1849   30.9136    8.4004 C.3     1  UNL1        0.0758
     23 N           3.2001   30.0191    9.5739 N.3     1  UNL1       -0.2724
     24 C           4.5385   29.8506   10.1497 C.3     1  UNL1        0.0758
     25 C           5.6414   30.1065    9.1354 C.3     1  UNL1        0.0586
     26 N           6.2526   32.3753    9.8071 N.pl3   1  UNL1       -0.3160
     27 C           7.5745   32.4943    9.4665 C.2     1  UNL1        0.0802
     28 C           8.6715   32.8718   10.1184 C.2     1  UNL1        0.1049
     29 N           8.7115   33.6679   11.2567 N.am    1  UNL1       -0.2771
     30 C           7.9900   34.8581   11.2275 C.2     1  UNL1        0.2456
     31 O           6.7896   34.9218   10.9696 O.2     1  UNL1       -0.2702
     32 C           8.8337   36.1136   11.3648 C.2     1  UNL1        0.0318
     33 C          10.2618   35.9894   11.8105 C.3     1  UNL1        0.0358
     34 C           8.2359   37.2592   10.9707 C.2     1  UNL1       -0.0001
     35 C           8.8345   38.5783   10.8990 C.2     1  UNL1       -0.0047
     36 C           8.1505   39.6703   10.5156 C.2     1  UNL1       -0.0240
     37 C           8.7460   41.0659   10.4563 C.3     1  UNL1        0.0490
     38 C           8.3899   41.7819   11.7681 C.3     1  UNL1        0.0072
     39 C           8.2872   41.9237    9.2324 C.3     1  UNL1        0.1167
     40 O           7.5828   41.1401    8.2665 O.3     1  UNL1       -0.3840
     41 C           9.3799   42.7949    8.5394 C.3     1  UNL1        0.0542
     42 C          10.1183   43.7273    9.4988 C.3     1  UNL1        0.0050
     43 C          10.3148   42.0719    7.5278 C.3     1  UNL1        0.1162
     44 O           9.4818   41.6133    6.4685 O.3     1  UNL1       -0.3843
     45 C          11.1994   40.8911    8.0026 C.3     1  UNL1        0.0672
     46 C          12.3645   41.4221    8.8722 C.3     1  UNL1        0.0062
     47 C          11.8190   39.9911    6.8706 C.3     1  UNL1        0.1736
     48 C          10.9587   38.9267    6.0806 C.3     1  UNL1        0.0717
     49 C           9.5147   38.6931    6.5612 C.3     1  UNL1        0.0066
     50 C          10.0033   32.4526    9.5681 C.2     1  UNL1        0.2131
     51 O          10.9886   32.5551   10.2940 O.2     1  UNL1       -0.2851
     52 H          13.2053   31.5885    7.7121 H       1  UNL1        0.2922
     53 H           5.8532   33.3049    9.9752 H       1  UNL1        0.1485
     54 H           9.6640   33.7155   11.6056 H       1  UNL1        0.1553
     55 H           8.1665   40.9929    7.4944 H       1  UNL1        0.2103
     56 H           9.2977   42.3554    5.8622 H       1  UNL1        0.2103
     57 C          12.1994   35.6168    7.3922 C.3     1  UNL1        0.1745
     58 O          11.2508   36.5420    6.8970 O.3     1  UNL1       -0.3490
     59 C           2.1885   30.3812   10.5817 C.3     1  UNL1        0.0720
     60 C           1.1824   29.2637   10.9676 C.3     1  UNL1        0.0160
     61 C           0.1826   29.0446    9.8271 C.3     1  UNL1        0.0014
     62 C           1.8613   27.9356   11.3105 C.3     1  UNL1        0.0014
     63 O          12.7277   40.8032    6.0579 O.3     1  UNL1       -0.4521
     64 C          12.4851   41.0084    4.7372 C.2     1  UNL1        0.3174
     65 C          13.5073   40.3039    3.8890 C.3     1  UNL1        0.1212
     66 O          11.5917   41.6936    4.2645 O.2     1  UNL1       -0.2501
@<TRIPOS>BOND
     1    57    58    1
     2    58     1    1
     3     1     2    1
     4     1    48    1
     5     2     3    2
     6     3     4    1
     7     4     5    1
     8     5     7    1
     9     5    16    1
    10     5     6    1
    11     7     8    1
    12     8     9   ar
    13     8    15   ar
    14     9    11   ar
    15     9    10    1
    16    11    13   ar
    17    11    12    1
    18    12    52    1
    19    13    14   ar
    20    13    50    1
    21    14    15   ar
    22    14    18    1
    23    15    16    1
    24    16    17    2
    25    18    19    2
    26    18    27    1
    27    19    20    1
    28    20    21    1
    29    20    25    1
    30    20    26    1
    31    21    22    1
    32    22    23    1
    33    23    59    1
    34    23    24    1
    35    59    60    1
    36    60    61    1
    37    60    62    1
    38    24    25    1
    39    26    27    1
    40    26    53    1
    41    27    28    2
    42    28    29    1
    43    28    50    1
    44    29    30   am
    45    29    54    1
    46    30    32    1
    47    30    31    2
    48    32    34    2
    49    32    33    1
    50    34    35    1
    51    35    36    2
    52    36    37    1
    53    37    39    1
    54    37    38    1
    55    39    41    1
    56    39    40    1
    57    40    55    1
    58    41    43    1
    59    41    42    1
    60    43    45    1
    61    43    44    1
    62    44    56    1
    63    45    47    1
    64    45    46    1
    65    47    48    1
    66    47    63    1
    67    63    64    1
    68    64    65    1
    69    64    66    2
    70    48    49    1
    71    50    51    2



#	Name:			CHEMBL445206
#	Creating user name:	trannguyen
#	Creation time:		Wed Dec  7 14:36:25 2022


#	Modifying user name:	trannguyen
#	Modification time:	Wed Dec  7 14:36:25 2022

@<TRIPOS>MOLECULE
CHEMBL445206
 13 13 0 0 0
SMALL
GASTEIGER

@<TRIPOS>ATOM
      1 C           3.4025   30.0865    9.7016 C.ar    1  UNL1        0.0029
      2 C           4.3148   29.0352    9.7944 C.ar    1  UNL1        0.0033
      3 C           3.8971   27.7831   10.2478 C.ar    1  UNL1        0.0398
      4 C           2.5635   27.5730   10.6137 C.ar    1  UNL1        0.1677
      5 O           2.2051   26.3241   11.0409 O.3     1  UNL1       -0.5029
      6 C           1.6343   28.6177   10.5343 C.ar    1  UNL1        0.1721
      7 C           2.0700   29.8724   10.0762 C.ar    1  UNL1        0.0400
      8 H           2.9741   25.7344   10.9897 H       1  UNL1        0.2923
      9 C           2.5227   31.3491    6.9809 C.3     1  UNL1        0.0307
     10 C           3.4642   31.9169    7.9948 C.2     1  UNL1       -0.0258
     11 C           3.8316   31.3816    9.1645 C.2     1  UNL1       -0.0045
     12 O           0.2992   28.5865   10.8430 O.3     1  UNL1       -0.4684
     13 C          -0.6247   29.0052    9.8473 C.3     1  UNL1        0.2526
@<TRIPOS>BOND
     1     9    10    1
     2    10    11    2
     3    11     1    1
     4     1     2   ar
     5     1     7   ar
     6     2     3   ar
     7     3     4   ar
     8     4     5    1
     9     4     6   ar
    10     5     8    1
    11     6    12    1
    12     6     7   ar
    13    12    13    1



#	Name:			CHEMBL44618
#	Creating user name:	trannguyen
#	Creation time:		Wed Dec  7 14:36:25 2022


#	Modifying user name:	trannguyen
#	Modification time:	Wed Dec  7 14:36:25 2022

@<TRIPOS>MOLECULE
CHEMBL44618
 4 3 0 0 0
SMALL
GASTEIGER

@<TRIPOS>ATOM
      1 CL          4.3781   27.9214    9.9110 Cl      1  UNL1       -0.0788
      2 C           3.1051   28.9620   10.5711 C.3     1  UNL1        0.2364
      3 CL          2.4284   29.9982    9.3034 Cl      1  UNL1       -0.0788
      4 CL          1.8317   27.9866   11.3235 Cl      1  UNL1       -0.0788
@<TRIPOS>BOND
     1     1     2    1
     2     2     3    1
     3     2     4    1



#	Name:			CHEMBL447
#	Creating user name:	trannguyen
#	Creation time:		Wed Dec  7 14:36:25 2022


#	Modifying user name:	trannguyen
#	Modification time:	Wed Dec  7 14:36:25 2022

@<TRIPOS>MOLECULE
CHEMBL447
 19 19 0 0 0
SMALL
GASTEIGER

@<TRIPOS>ATOM
      1 C           2.2350   30.8565    9.3423 C.3     1  UNL1        0.1419
      2 C           0.9016   30.1170    9.5308 C.2     1  UNL1        0.2370
      3 O          -0.1097   30.3335    8.8675 O.2     1  UNL1       -0.2742
      4 N           0.8302   29.1974   10.5407 N.am    1  UNL1       -0.2390
      5 C           1.8733   28.4717   11.0111 C.2     1  UNL1        0.3122
      6 O           1.7281   27.5401   11.7712 O.2     1  UNL1       -0.2520
      7 N           3.1001   28.8528   10.5711 N.am    1  UNL1       -0.2390
      8 C           3.3790   30.0668   10.0276 C.2     1  UNL1        0.2370
      9 O           4.5455   30.4553   10.0861 O.2     1  UNL1       -0.2742
     10 H          -0.0770   28.7800   10.6983 H       1  UNL1        0.1591
     11 H           3.8820   28.3756   11.0028 H       1  UNL1        0.1591
     12 C           2.1473   32.2814   10.0541 C.3     1  UNL1        0.0168
     13 C           3.2350   33.2668    9.5734 C.3     1  UNL1        0.0010
     14 C           0.7355   32.9833   10.0848 C.3     1  UNL1        0.0009
     15 C           0.8126   34.4577   10.5536 C.3     1  UNL1        0.0000
     16 C          -0.4885   35.2411   10.6690 C.3     1  UNL1        0.0000
     17 C           2.6478   30.8058    7.8334 C.3     1  UNL1        0.0434
     18 C           2.1304   31.4116    5.4532 C.2     1  UNL1       -0.0049
     19 C           1.9043   31.5656    6.7664 C.2     1  UNL1       -0.0252
@<TRIPOS>BOND
     1    18    19    2
     2    19    17    1
     3    17     1    1
     4     1    12    1
     5     1     2    1
     6     1     8    1
     7    12    13    1
     8    12    14    1
     9    14    15    1
    10    15    16    1
    11     2     3    2
    12     2     4   am
    13     4     5   am
    14     4    10    1
    15     5     6    2
    16     5     7   am
    17     7     8   am
    18     7    11    1
    19     8     9    2



#	Name:			CHEMBL44814
#	Creating user name:	trannguyen
#	Creation time:		Wed Dec  7 14:36:25 2022


#	Modifying user name:	trannguyen
#	Modification time:	Wed Dec  7 14:36:25 2022

@<TRIPOS>MOLECULE
CHEMBL44814
 5 4 0 0 0
SMALL
GASTEIGER

@<TRIPOS>ATOM
      1 CL          3.6694   33.1478    5.8659 Cl      1  UNL1       -0.0666
      2 C           2.4249   31.9761    5.3630 C.3     1  UNL1        0.2662
      3 CL          1.8562   31.0665    6.7857 Cl      1  UNL1       -0.0666
      4 CL          1.0545   32.8445    4.6265 Cl      1  UNL1       -0.0666
      5 CL          3.1196   30.8455    4.1740 Cl      1  UNL1       -0.0666
@<TRIPOS>BOND
     1     1     2    1
     2     2     3    1
     3     2     4    1
     4     2     5    1



#	Name:			CHEMBL448462
#	Creating user name:	trannguyen
#	Creation time:		Wed Dec  7 14:36:25 2022


#	Modifying user name:	trannguyen
#	Modification time:	Wed Dec  7 14:36:25 2022

@<TRIPOS>MOLECULE
CHEMBL448462
 23 22 0 0 0
SMALL
GASTEIGER

@<TRIPOS>ATOM
      1 C           4.4641   32.2375    6.3013 C.1     1  UNL1       -0.0118
      2 C           3.3078   32.0613    6.5213 C.1     1  UNL1       -0.0492
      3 C           1.9050   31.8473    6.7884 C.3     1  UNL1        0.1750
      4 O           1.2733   31.3352    5.6185 O.3     1  UNL1       -0.3722
      5 H           1.4997   31.9454    4.8954 H       1  UNL1        0.2116
      6 C           1.7033   30.8425    7.9302 C.3     1  UNL1        0.0429
      7 C           2.5300   31.1316    9.1927 C.3     1  UNL1        0.0041
      8 C           2.1725   30.2240   10.3748 C.3     1  UNL1        0.0118
      9 C           2.5324   28.7649   10.1301 C.3     1  UNL1        0.1094
     10 C           1.7816   27.8165   11.0356 C.2     1  UNL1        0.3138
     11 O           2.2635   26.9203   11.6943 O.2     1  UNL1       -0.2503
     12 O           0.4617   28.0654   11.0563 O.3     1  UNL1       -0.4802
     13 H           0.1015   27.4049   11.6850 H       1  UNL1        0.2951
     14 C           6.9494   32.6166    5.8282 C.1     1  UNL1       -0.0779
     15 C           5.7931   32.4403    6.0483 C.1     1  UNL1       -0.0141
     16 C           8.3523   32.8305    5.5613 C.3     1  UNL1        0.0770
     17 C           9.2046   32.5865    6.8199 C.3     1  UNL1        0.0140
     18 C           9.0523   31.1667    7.3938 C.3     1  UNL1        0.0010
     19 C           8.6773   31.1825    8.8793 C.3     1  UNL1        0.0000
     20 C           7.1632   31.0565    9.0856 C.3     1  UNL1        0.0000
     21 C           6.6553   32.0790   10.1065 C.3     1  UNL1        0.0000
     22 C           5.0398   33.9472    9.5825 C.3     1  UNL1        0.0000
     23 C           6.4758   33.4586    9.4726 C.3     1  UNL1        0.0000
@<TRIPOS>BOND
     1    22    23    1
     2    23    21    1
     3    21    20    1
     4    20    19    1
     5    19    18    1
     6    18    17    1
     7    17    16    1
     8    16    14    1
     9    14    15    3
    10    15     1    1
    11     1     2    3
    12     2     3    1
    13     3     4    1
    14     3     6    1
    15     4     5    1
    16     6     7    1
    17     7     8    1
    18     8     9    1
    19     9    10    1
    20    10    11    2
    21    10    12    1
    22    12    13    1



#	Name:			CHEMBL45
#	Creating user name:	trannguyen
#	Creation time:		Wed Dec  7 14:36:25 2022


#	Modifying user name:	trannguyen
#	Modification time:	Wed Dec  7 14:36:25 2022

@<TRIPOS>MOLECULE
CHEMBL45
 19 20 0 0 0
SMALL
GASTEIGER

@<TRIPOS>ATOM
      1 C           4.9116   29.9776    9.8898 C.ar    1  UNL1        0.1388
      2 C           4.8126   28.6036   10.1236 C.ar    1  UNL1        0.0384
      3 C           3.5688   27.9512   10.1068 C.ar    1  UNL1        0.0201
      4 C           2.4319   28.7300    9.8562 C.ar    1  UNL1        0.0565
      5 N           1.1039   28.3846    9.7861 N.ar    1  UNL1       -0.3523
      6 H           0.7513   27.4477    9.9198 H       1  UNL1        0.1660
      7 C           0.3380   29.4897    9.5150 C.ar    1  UNL1        0.0681
      8 C           1.1706   30.5861    9.4172 C.ar    1  UNL1       -0.0020
      9 C           2.4975   30.0978    9.6177 C.ar    1  UNL1        0.0161
     10 C           3.7552   30.7175    9.6243 C.ar    1  UNL1        0.0381
     11 C           6.2343   31.8827    9.4657 C.3     1  UNL1        0.2525
     12 O           6.1667   30.5359    9.9425 O.3     1  UNL1       -0.4714
     13 C           0.7756   32.0107    9.1489 C.3     1  UNL1        0.0491
     14 C           0.7971   32.8957   10.4026 C.3     1  UNL1        0.0941
     15 N           0.7136   34.3191   10.1231 N.am    1  UNL1       -0.3040
     16 C          -0.2954   35.1093   10.6054 C.2     1  UNL1        0.2230
     17 C          -0.2198   36.5331   10.1387 C.3     1  UNL1        0.0946
     18 O          -1.1908   34.7026   11.3571 O.2     1  UNL1       -0.2751
     19 H           1.3619   34.7055    9.4432 H       1  UNL1        0.1494
@<TRIPOS>BOND
     1    11    12    1
     2    12     1    1
     3     1     2   ar
     4     1    10   ar
     5     2     3   ar
     6     3     4   ar
     7     4     5   ar
     8     4     9   ar
     9     5     6    1
    10     5     7   ar
    11     7     8   ar
    12     8    13    1
    13     8     9   ar
    14    13    14    1
    15    14    15    1
    16    15    16   am
    17    15    19    1
    18    16    17    1
    19    16    18    2
    20     9    10   ar



#	Name:			CHEMBL450895
#	Creating user name:	trannguyen
#	Creation time:		Wed Dec  7 14:36:25 2022


#	Modifying user name:	trannguyen
#	Modification time:	Wed Dec  7 14:36:25 2022

@<TRIPOS>MOLECULE
CHEMBL450895
 78 80 0 0 0
SMALL
GASTEIGER

@<TRIPOS>ATOM
      1 C          17.4999   30.9541    6.3197 C.3     1  UNL1        0.0474
      2 C          16.8889   32.3144    5.9992 C.3     1  UNL1        0.1712
      3 O          16.8941   32.4611    4.5476 O.3     1  UNL1       -0.4521
      4 C          18.0462   32.8140    3.9111 C.2     1  UNL1        0.3194
      5 O          19.1184   33.0314    4.4595 O.2     1  UNL1       -0.2500
      6 C          17.7913   32.7860    2.4192 C.3     1  UNL1        0.1387
      7 C          18.7768   33.6228    1.5988 C.3     1  UNL1        0.1241
      8 O          18.4625   35.0153    1.7052 O.3     1  UNL1       -0.3838
      9 C          18.8300   33.2484    0.0917 C.3     1  UNL1        0.0591
     10 C          17.4900   33.3807   -0.6458 C.3     1  UNL1        0.1154
     11 O          16.5880   32.3910   -0.1358 O.3     1  UNL1       -0.3843
     12 C          17.5733   33.2240   -2.1893 C.3     1  UNL1        0.0585
     13 C          16.1895   33.4876   -2.8145 C.3     1  UNL1        0.1130
     14 O          15.2621   32.5156   -2.3137 O.3     1  UNL1       -0.3844
     15 C          16.0776   33.4454   -4.3565 C.3     1  UNL1        0.0319
     16 C          14.6601   33.9336   -4.7284 C.3     1  UNL1        0.0342
     17 C          14.0989   33.7355   -6.1527 C.3     1  UNL1        0.1374
     18 O          14.1077   32.3491   -6.4994 O.3     1  UNL1       -0.3820
     19 C          12.6135   34.2120   -6.1538 C.3     1  UNL1        0.1420
     20 O          11.8923   33.3808   -5.2173 O.3     1  UNL1       -0.3818
     21 C          11.8389   34.1231   -7.4731 C.3     1  UNL1        0.0877
     22 C          10.6265   35.0946   -7.4866 C.3     1  UNL1        0.1882
     23 O          11.1680   36.4125   -7.5316 O.3     1  UNL1       -0.3634
     24 C           9.7554   34.9545   -8.7332 C.3     1  UNL1        0.0859
     25 C           8.8361   33.7451   -8.6605 C.3     1  UNL1        0.1283
     26 O           7.8843   33.8216   -9.7324 O.3     1  UNL1       -0.3836
     27 C           8.0559   33.7200   -7.3522 C.3     1  UNL1        0.1529
     28 C           8.9687   33.9383   -6.1348 C.3     1  UNL1        0.1333
     29 C           8.1022   34.1563   -4.8616 C.3     1  UNL1        0.0645
     30 C           8.9159   34.2023   -3.5553 C.3     1  UNL1        0.1423
     31 C           8.0623   33.7859   -2.3790 C.2     1  UNL1        0.0030
     32 C           8.2449   32.6189   -1.7429 C.2     1  UNL1       -0.0022
     33 C           7.6059   32.2007   -0.5170 C.2     1  UNL1       -0.0003
     34 C           7.5284   32.9717    0.5788 C.2     1  UNL1       -0.0000
     35 C           7.1786   32.4457    1.8818 C.2     1  UNL1       -0.0000
     36 C           7.2508   33.1887    2.9968 C.2     1  UNL1       -0.0003
     37 C           7.1696   32.6218    4.3252 C.2     1  UNL1       -0.0046
     38 C           7.3217   33.3653    5.4319 C.2     1  UNL1       -0.0258
     39 C           7.4930   32.7897    6.8145 C.3     1  UNL1        0.0307
     40 C           8.7872   33.3353    7.4327 C.3     1  UNL1        0.0307
     41 C           9.2823   32.5456    8.6158 C.2     1  UNL1       -0.0258
     42 C          10.3870   31.7820    8.6383 C.2     1  UNL1       -0.0049
     43 C          11.1774   31.4846    7.4714 C.2     1  UNL1       -0.0048
     44 C          12.5023   31.6411    7.3311 C.2     1  UNL1       -0.0240
     45 C          13.5107   32.2009    8.3198 C.3     1  UNL1        0.0490
     46 C          13.1911   33.6383    8.7461 C.3     1  UNL1        0.0072
     47 C          14.9998   32.0105    7.8426 C.3     1  UNL1        0.1178
     48 O          15.2576   30.5971    7.8958 O.3     1  UNL1       -0.3840
     49 C          15.3937   32.5168    6.4202 C.3     1  UNL1        0.0673
     50 C          15.0480   34.0002    6.2113 C.3     1  UNL1        0.0062
     51 O           9.8077   35.0837   -6.3237 O.3     1  UNL1       -0.3361
     52 H          17.4993   35.1308    1.6288 H       1  UNL1        0.2104
     53 H          16.9392   31.5148   -0.3874 H       1  UNL1        0.2103
     54 H          15.3062   32.5674   -1.3346 H       1  UNL1        0.2103
     55 H          15.0362   32.0574   -6.5030 H       1  UNL1        0.2104
     56 H          12.2569   32.4806   -5.3621 H       1  UNL1        0.2104
     57 H          10.8234   36.8074   -6.7070 H       1  UNL1        0.2128
     58 H           8.3882   33.8308  -10.5683 H       1  UNL1        0.2104
     59 H          15.0255   30.2795    8.7854 H       1  UNL1        0.2104
     60 C           7.3627   32.3761   -7.2516 C.2     1  UNL1        0.3181
     61 O           7.8705   31.3085   -7.5617 O.2     1  UNL1       -0.2501
     62 O           6.0962   32.4642   -6.7855 O.3     1  UNL1       -0.4801
     63 H           5.7845   33.3938   -6.7409 H       1  UNL1        0.2951
     64 O           9.3913   35.5363   -3.3557 O.3     1  UNL1       -0.3266
     65 C           8.6126   36.3990   -2.5136 C.3     1  UNL1        0.2647
     66 O           7.9790   37.3615   -3.3726 O.3     1  UNL1       -0.3286
     67 C           7.1571   38.3084   -2.6778 C.3     1  UNL1        0.1460
     68 C           6.5403   39.2317   -3.7226 C.3     1  UNL1        0.0348
     69 C           7.9730   39.1038   -1.6496 C.3     1  UNL1        0.1541
     70 O           7.1607   40.0206   -0.9106 O.3     1  UNL1       -0.3805
     71 C           8.6184   38.1206   -0.6588 C.3     1  UNL1        0.1127
     72 N           9.4386   38.8904    0.3151 N.3     1  UNL1       -0.3181
     73 C           9.4618   37.1049   -1.4322 C.3     1  UNL1        0.1835
     74 O          10.5362   37.8316   -2.0372 O.3     1  UNL1       -0.3783
     75 H           7.7264   40.2628   -0.1474 H       1  UNL1        0.2105
     76 H          10.2869   39.1464   -0.2116 H       1  UNL1        0.1190
     77 H           9.8109   38.2316    1.0035 H       1  UNL1        0.1190
     78 H          11.1222   37.1519   -2.4357 H       1  UNL1        0.2106
@<TRIPOS>BOND
     1     1     2    1
     2     2     3    1
     3     2    49    1
     4     3     4    1
     5     4     5    2
     6     4     6    1
     7     6     7    1
     8     7     9    1
     9     7     8    1
    10     8    52    1
    11     9    10    1
    12    10    12    1
    13    10    11    1
    14    11    53    1
    15    12    13    1
    16    13    15    1
    17    13    14    1
    18    14    54    1
    19    15    16    1
    20    16    17    1
    21    17    18    1
    22    17    19    1
    23    18    55    1
    24    19    21    1
    25    19    20    1
    26    20    56    1
    27    21    22    1
    28    22    23    1
    29    22    24    1
    30    22    51    1
    31    23    57    1
    32    24    25    1
    33    25    26    1
    34    25    27    1
    35    26    58    1
    36    27    28    1
    37    27    60    1
    38    60    61    2
    39    60    62    1
    40    62    63    1
    41    28    29    1
    42    28    51    1
    43    29    30    1
    44    30    64    1
    45    30    31    1
    46    65    66    1
    47    65    73    1
    48    65    64    1
    49    66    67    1
    50    67    68    1
    51    67    69    1
    52    69    71    1
    53    69    70    1
    54    70    75    1
    55    71    72    1
    56    71    73    1
    57    72    76    1
    58    72    77    1
    59    73    74    1
    60    74    78    1
    61    31    32    2
    62    32    33    1
    63    33    34    2
    64    34    35    1
    65    35    36    2
    66    36    37    1
    67    37    38    2
    68    38    39    1
    69    39    40    1
    70    40    41    1
    71    41    42    2
    72    42    43    1
    73    43    44    2
    74    44    45    1
    75    45    47    1
    76    45    46    1
    77    47    48    1
    78    47    49    1
    79    48    59    1
    80    49    50    1



#	Name:			CHEMBL452861
#	Creating user name:	trannguyen
#	Creation time:		Wed Dec  7 14:36:25 2022


#	Modifying user name:	trannguyen
#	Modification time:	Wed Dec  7 14:36:25 2022

@<TRIPOS>MOLECULE
CHEMBL452861
 21 22 0 0 0
SMALL
GASTEIGER

@<TRIPOS>ATOM
      1 O           3.8390   32.3063    8.6084 O.3     1  UNL1       -0.4728
      2 C           3.8378   31.0542    9.2081 C.ar    1  UNL1        0.1386
      3 C           5.0294   30.4477    9.6345 C.ar    1  UNL1        0.0369
      4 C           5.0309   29.1959   10.2281 C.ar    1  UNL1        0.0031
      5 C           3.8278   28.5451   10.4555 C.ar    1  UNL1        0.0002
      6 C           2.6144   29.1233   10.0816 C.ar    1  UNL1        0.0029
      7 C           1.4254   28.4333   10.3501 C.ar    1  UNL1        0.0001
      8 C           0.1941   28.9431    9.9636 C.ar    1  UNL1        0.0000
      9 C           0.1455   30.1560    9.2826 C.ar    1  UNL1        0.0001
     10 C           1.3230   30.8691    9.0177 C.ar    1  UNL1        0.0030
     11 C           2.5912   30.3917    9.4234 C.ar    1  UNL1        0.0340
     12 C           4.0051   33.3879    9.5517 C.3     1  UNL1        0.2358
     13 C           3.5659   34.7314    8.9674 C.3     1  UNL1        0.1697
     14 O           3.0517   34.5544    7.6388 O.3     1  UNL1       -0.3793
     15 H           3.7001   33.9928    7.1739 H       1  UNL1        0.2106
     16 C           2.4752   35.3836    9.8504 C.3     1  UNL1        0.1020
     17 N           2.0676   36.7346    9.4154 N.3     1  UNL1       -0.2964
     18 H           2.8043   37.3872    9.7005 H       1  UNL1        0.1233
     19 C          -0.0435   36.0349   10.5541 C.3     1  UNL1        0.0171
     20 C           0.7759   37.1865    9.9658 C.3     1  UNL1        0.0541
     21 C           0.9238   38.3211   10.9833 C.3     1  UNL1        0.0171
@<TRIPOS>BOND
     1    19    20    1
     2    20    21    1
     3    20    17    1
     4    17    16    1
     5    17    18    1
     6    13    14    1
     7    13    12    1
     8    13    16    1
     9    14    15    1
    10    12     1    1
    11     1     2    1
    12     2     3   ar
    13     2    11   ar
    14     3     4   ar
    15     4     5   ar
    16     5     6   ar
    17     6     7   ar
    18     6    11   ar
    19     7     8   ar
    20     8     9   ar
    21     9    10   ar
    22    10    11   ar



#	Name:			CHEMBL456807
#	Creating user name:	trannguyen
#	Creation time:		Wed Dec  7 14:36:25 2022


#	Modifying user name:	trannguyen
#	Modification time:	Wed Dec  7 14:36:25 2022

@<TRIPOS>MOLECULE
CHEMBL456807
 11 11 0 0 0
SMALL
GASTEIGER

@<TRIPOS>ATOM
      1 C           1.6987   28.5589   10.5836 C.ar    1  UNL1        0.0578
      2 C           2.6104   27.4973   10.4863 C.ar    1  UNL1        0.0155
      3 C           3.9319   27.7170   10.0858 C.ar    1  UNL1        0.0013
      4 C           4.3681   29.0084    9.8014 C.ar    1  UNL1        0.0001
      5 C           3.4875   30.0792    9.9300 C.ar    1  UNL1        0.0013
      6 C           2.1668   29.8553   10.3305 C.ar    1  UNL1        0.0155
      7 N          -0.6952   28.6419   10.2255 N.3     1  UNL1       -0.2565
      8 N           0.3869   28.3005   11.0528 N.pl3   1  UNL1       -0.2818
      9 H          -1.5724   28.6160   10.7479 H       1  UNL1        0.1404
     10 H          -0.7850   27.9776    9.4538 H       1  UNL1        0.1404
     11 H           0.3334   27.4015   11.5373 H       1  UNL1        0.1660
@<TRIPOS>BOND
     1     7     8    1
     2     7     9    1
     3     7    10    1
     4     8     1    1
     5     8    11    1
     6     1     2   ar
     7     1     6   ar
     8     2     3   ar
     9     3     4   ar
    10     4     5   ar
    11     5     6   ar



#	Name:			CHEMBL460499
#	Creating user name:	trannguyen
#	Creation time:		Wed Dec  7 14:36:25 2022


#	Modifying user name:	trannguyen
#	Modification time:	Wed Dec  7 14:36:25 2022

@<TRIPOS>MOLECULE
CHEMBL460499
 20 20 0 0 0
SMALL
GASTEIGER

@<TRIPOS>ATOM
      1 N           3.9242   31.8661    8.2670 N.am    1  UNL1       -0.2863
      2 C           2.7150   31.2190    8.3645 C.2     1  UNL1        0.3235
      3 O           1.7661   31.5240    7.6391 O.2     1  UNL1       -0.2491
      4 N           2.6316   30.1943    9.3320 N.ar    1  UNL1       -0.2113
      5 C           1.3548   29.7444    9.6741 C.ar    1  UNL1        0.1231
      6 C           1.1378   28.7002   10.4707 C.ar    1  UNL1        0.2134
      7 F          -0.1011   28.2895   10.7991 F       1  UNL1       -0.1975
      8 C           2.2731   27.9364   11.0097 C.ar    1  UNL1        0.2901
      9 O           2.1432   26.9215   11.6755 O.2     1  UNL1       -0.2646
     10 N           3.4984   28.4602   10.6837 N.ar    1  UNL1       -0.2722
     11 H           4.3029   27.9602   11.0414 H       1  UNL1        0.1735
     12 C           3.7533   29.5323    9.8573 C.ar    1  UNL1        0.3378
     13 O           4.9250   29.8515    9.6415 O.2     1  UNL1       -0.2460
     14 H           4.6945   31.5211    8.8351 H       1  UNL1        0.1512
     15 C           4.2007   32.9081    7.2860 C.3     1  UNL1        0.0911
     16 C           5.0920   32.4089    6.1427 C.3     1  UNL1        0.0213
     17 C           4.4200   32.5118    4.7621 C.3     1  UNL1        0.0018
     18 C           3.4127   31.3709    4.5375 C.3     1  UNL1        0.0001
     19 C           1.8269   33.3479    4.4405 C.3     1  UNL1        0.0000
     20 C           2.0365   31.8789    4.0911 C.3     1  UNL1        0.0000
@<TRIPOS>BOND
     1    19    20    1
     2    20    18    1
     3    18    17    1
     4    17    16    1
     5    16    15    1
     6    15     1    1
     7     1     2   am
     8     1    14    1
     9     2     3    2
    10     2     4   am
    11     4     5   ar
    12     4    12   ar
    13     5     6   ar
    14     6     7    1
    15     6     8   ar
    16     8     9    2
    17     8    10   ar
    18    10    11    1
    19    10    12   ar
    20    12    13    2



#	Name:			CHEMBL461727
#	Creating user name:	trannguyen
#	Creation time:		Wed Dec  7 14:36:25 2022


#	Modifying user name:	trannguyen
#	Modification time:	Wed Dec  7 14:36:25 2022

@<TRIPOS>MOLECULE
CHEMBL461727
 39 41 0 0 0
SMALL
GASTEIGER

@<TRIPOS>ATOM
      1 C           2.2766   31.4429    6.0020 C.3     1  UNL1        0.2668
      2 O           3.6054   31.6949    6.4780 O.3     1  UNL1       -0.3259
      3 C           4.4897   32.1303    5.4410 C.3     1  UNL1        0.1765
      4 C           4.0372   33.5070    4.9301 C.3     1  UNL1        0.1694
      5 O           4.8299   33.9913    3.8393 O.3     1  UNL1       -0.3794
      6 C           2.5983   33.3942    4.4183 C.3     1  UNL1        0.1715
      7 O           2.0960   34.6925    4.0665 O.3     1  UNL1       -0.3794
      8 C           1.6472   32.7313    5.4237 C.3     1  UNL1        0.1965
      9 O           0.4056   32.4027    4.7660 O.3     1  UNL1       -0.3775
     10 H           5.7538   33.7020    4.0013 H       1  UNL1        0.2105
     11 H           2.8307   35.1338    3.5924 H       1  UNL1        0.2105
     12 H           0.4225   32.7992    3.8757 H       1  UNL1        0.2106
     13 O           1.5464   30.9263    7.1151 O.3     1  UNL1       -0.3117
     14 C           1.9972   31.3530    8.4199 C.3     1  UNL1        0.2304
     15 C           2.4096   30.1150    9.2153 C.ar    1  UNL1        0.0192
     16 C           1.4338   29.1881    9.6312 C.ar    1  UNL1       -0.0009
     17 C           1.7986   28.0437   10.3456 C.ar    1  UNL1       -0.0002
     18 C           3.1375   27.8068   10.6475 C.ar    1  UNL1       -0.0000
     19 C           4.1133   28.7139   10.2409 C.ar    1  UNL1       -0.0002
     20 C           3.7526   29.8574    9.5278 C.ar    1  UNL1       -0.0009
     21 N           0.2035   32.8053    9.7306 N.1     1  UNL1       -0.1930
     22 C           0.9737   32.1468    9.1695 C.1     1  UNL1        0.1072
     23 C           5.9218   32.1548    5.9966 C.3     1  UNL1        0.1769
     24 O           6.1502   33.3642    6.7347 O.3     1  UNL1       -0.3259
     25 C           5.8162   33.2177    8.1297 C.3     1  UNL1        0.2658
     26 O           4.7517   34.1270    8.4137 O.3     1  UNL1       -0.3260
     27 C           4.3531   34.1393    9.7825 C.3     1  UNL1        0.1761
     28 C           5.5096   34.6373   10.6599 C.3     1  UNL1        0.1694
     29 O           5.1913   34.6410   12.0559 O.3     1  UNL1       -0.3794
     30 C           6.7025   33.7050   10.4669 C.3     1  UNL1        0.1715
     31 O           7.8427   34.2153   11.1803 O.3     1  UNL1       -0.3794
     32 C           7.0693   33.5280    8.9910 C.3     1  UNL1        0.1964
     33 O           8.0452   32.4732    8.9115 O.3     1  UNL1       -0.3775
     34 H           4.3159   35.0797   12.1438 H       1  UNL1        0.2105
     35 H           7.4939   34.4830   12.0562 H       1  UNL1        0.2105
     36 H           8.7151   32.6981    9.5906 H       1  UNL1        0.2106
     37 C           3.1238   35.0473    9.9040 C.3     1  UNL1        0.1693
     38 O           3.2480   36.1935    9.0670 O.3     1  UNL1       -0.3794
     39 H           3.6116   36.9130    9.6164 H       1  UNL1        0.2105
@<TRIPOS>BOND
     1    21    22    3
     2    14    13    1
     3    14    15    1
     4    14    22    1
     5     1     2    1
     6     1     8    1
     7     1    13    1
     8     2     3    1
     9     3    23    1
    10     3     4    1
    11    23    24    1
    12    25    26    1
    13    25    32    1
    14    25    24    1
    15    26    27    1
    16    27    37    1
    17    27    28    1
    18    37    38    1
    19    38    39    1
    20    28    30    1
    21    28    29    1
    22    29    34    1
    23    30    31    1
    24    30    32    1
    25    31    35    1
    26    32    33    1
    27    33    36    1
    28     4     6    1
    29     4     5    1
    30     5    10    1
    31     6     7    1
    32     6     8    1
    33     7    11    1
    34     8     9    1
    35     9    12    1
    36    15    16   ar
    37    15    20   ar
    38    16    17   ar
    39    17    18   ar
    40    18    19   ar
    41    19    20   ar



#	Name:			CHEMBL4639024
#	Creating user name:	trannguyen
#	Creation time:		Wed Dec  7 14:36:25 2022


#	Modifying user name:	trannguyen
#	Modification time:	Wed Dec  7 14:36:25 2022

@<TRIPOS>MOLECULE
CHEMBL4639024
 38 38 0 0 0
SMALL
GASTEIGER

@<TRIPOS>ATOM
      1 C           5.1729   32.4555    8.5100 C.3     1  UNL1        0.2123
      2 P           4.1824   32.9660    7.0584 P.3     1  UNL1        0.3545
      3 O           3.9580   31.4856    6.6909 O.2     1  UNL1       -0.2571
      4 O           3.2460   33.4486    5.6862 O.3     1  UNL1       -0.2962
      5 C           1.1265   32.5955    4.8290 C.3     1  UNL1        0.0326
      6 C           2.6445   32.6044    4.7141 C.3     1  UNL1        0.1241
      7 C           3.0898   33.1544    3.3519 C.3     1  UNL1        0.0326
      8 O           5.5817   33.2771    6.1533 O.3     1  UNL1       -0.2962
      9 C           6.4774   32.1801    5.7912 C.3     1  UNL1        0.1241
     10 C           6.2830   31.8702    4.3039 C.3     1  UNL1        0.0326
     11 C           7.9467   32.5624    5.9943 C.3     1  UNL1        0.0326
     12 P           4.2223   31.2474    9.5029 P.3     1  UNL1        0.3545
     13 O           5.3425   30.9968   10.4962 O.2     1  UNL1       -0.2571
     14 O           3.1758   32.4782   10.0631 O.3     1  UNL1       -0.2962
     15 C           1.7212   32.3876   10.1655 C.3     1  UNL1        0.1241
     16 C           1.0630   33.7717   10.4098 C.3     1  UNL1        0.0326
     17 C           1.0552   31.9251    8.8638 C.3     1  UNL1        0.0326
     18 O           3.3236   30.1054   10.4415 O.3     1  UNL1       -0.2962
     19 C           2.8229   28.8290   10.0759 C.3     1  UNL1        0.1241
     20 C           3.8752   27.7367   10.1004 C.3     1  UNL1        0.0326
     21 C           1.7485   28.4436   11.1244 C.3     1  UNL1        0.0326
     22 C           5.7005   33.6667    9.3342 C.3     1  UNL1        0.0509
     23 C           7.1781   33.8476    9.7619 C.ar    1  UNL1       -0.0214
     24 C           8.1637   32.9376    9.3584 C.ar    1  UNL1       -0.0056
     25 C           9.5586   33.1482    9.6143 C.ar    1  UNL1        0.0103
     26 C           9.8687   34.3978   10.1857 C.ar    1  UNL1        0.1255
     27 O          11.1987   34.6341   10.4888 O.3     1  UNL1       -0.5061
     28 C           8.9791   35.3914   10.5241 C.ar    1  UNL1        0.0103
     29 C           7.5900   35.0622   10.3687 C.ar    1  UNL1       -0.0056
     30 H          11.2654   34.4709   11.4279 H       1  UNL1        0.2922
     31 C          10.6450   32.0825    9.2688 C.3     1  UNL1        0.0218
     32 C          11.4898   31.7353   10.5187 C.3     1  UNL1        0.0045
     33 C          10.0505   30.7495    8.7243 C.3     1  UNL1        0.0045
     34 C          11.6208   32.5435    8.1622 C.3     1  UNL1        0.0045
     35 C           9.4185   36.7855   11.0605 C.3     1  UNL1        0.0218
     36 C          10.1026   36.7182   12.4675 C.3     1  UNL1        0.0045
     37 C          10.4453   37.4091   10.1021 C.3     1  UNL1        0.0045
     38 C           8.2642   37.8065   11.2787 C.3     1  UNL1        0.0045
@<TRIPOS>BOND
     1     5     6    1
     2     6     7    1
     3     6     4    1
     4     4     2    1
     5     2     3    2
     6     2     8    1
     7     2     1    1
     8     8     9    1
     9     9    10    1
    10     9    11    1
    11     1    22    1
    12     1    12    1
    13    22    23    1
    14    23    24   ar
    15    23    29   ar
    16    24    25   ar
    17    25    31    1
    18    25    26   ar
    19    31    32    1
    20    31    33    1
    21    31    34    1
    22    26    27    1
    23    26    28   ar
    24    27    30    1
    25    28    35    1
    26    28    29   ar
    27    35    36    1
    28    35    37    1
    29    35    38    1
    30    12    13    2
    31    12    14    1
    32    12    18    1
    33    14    15    1
    34    15    16    1
    35    15    17    1
    36    18    19    1
    37    19    20    1
    38    19    21    1



#	Name:			CHEMBL4645080
#	Creating user name:	trannguyen
#	Creation time:		Wed Dec  7 14:36:25 2022


#	Modifying user name:	trannguyen
#	Modification time:	Wed Dec  7 14:36:25 2022

@<TRIPOS>MOLECULE
CHEMBL4645080
 30 33 0 0 0
SMALL
GASTEIGER

@<TRIPOS>ATOM
      1 C           3.8754   31.5296    4.8689 C.3     1  UNL1        0.0000
      2 C           3.2762   32.0470    3.5540 C.3     1  UNL1        0.0000
      3 C           3.8131   33.4575    3.3990 C.3     1  UNL1        0.0000
      4 C           5.1437   33.5186    4.1841 C.3     1  UNL1        0.0003
      5 C           6.2562   34.0629    3.2775 C.3     1  UNL1        0.0046
      6 C           7.5265   34.4978    4.0294 C.3     1  UNL1        0.0254
      7 C           8.5490   35.0291    3.0673 C.2     1  UNL1       -0.0342
      8 C           8.5504   34.7595    1.7484 C.2     1  UNL1       -0.0418
      9 C           9.4421   35.5433    0.8116 C.3     1  UNL1        0.0861
     10 C           8.5538   36.3182   -0.1371 C.2     1  UNL1        0.1547
     11 O           8.7884   37.4890   -0.4427 O.2     1  UNL1       -0.2957
     12 C           7.4479   35.5414   -0.8356 C.3     1  UNL1        0.0652
     13 C           6.6709   34.6537    0.1425 C.3     1  UNL1        0.0115
     14 C           7.5635   33.7852    1.0918 C.3     1  UNL1        0.0157
     15 C           8.3051   32.7295    0.2407 C.3     1  UNL1        0.0041
     16 C           6.6247   33.0735    2.1529 C.3     1  UNL1        0.0038
     17 C           7.1621   31.7877    2.8094 C.3     1  UNL1        0.0003
     18 C           6.2098   31.1676    3.8529 C.3     1  UNL1        0.0000
     19 C           5.3477   32.1056    4.7862 C.3     1  UNL1        0.0000
     20 C           6.0167   32.1564    6.1696 C.3     1  UNL1        0.0000
     21 C           1.4870   31.9261    5.6044 C.3     1  UNL1        0.0000
     22 C           2.9373   31.7683    6.1201 C.3     1  UNL1        0.0000
     23 C           3.2808   32.9439    7.0678 C.3     1  UNL1        0.0001
     24 C           2.9892   32.7390    8.5756 C.3     1  UNL1        0.0024
     25 C           3.3315   31.3539    9.1483 C.3     1  UNL1        0.0269
     26 C           2.1590   30.6192    9.8547 C.3     1  UNL1        0.0885
     27 C           0.8398   30.7287    9.0803 C.3     1  UNL1        0.0293
     28 C           2.4908   29.1554   10.1623 C.3     1  UNL1        0.0293
     29 O           1.9519   31.2723   11.1183 O.3     1  UNL1       -0.3867
     30 H           1.2435   30.8011   11.5886 H       1  UNL1        0.2102
@<TRIPOS>BOND
     1    22    23    1
     2    22     1    1
     3    22    21    1
     4    23    24    1
     5    24    25    1
     6    25    26    1
     7    26    27    1
     8    26    28    1
     9    26    29    1
    10    29    30    1
    11     1     2    1
    12     1    19    1
    13     2     3    1
    14     3     4    1
    15     4     5    1
    16     4    19    1
    17     5     6    1
    18     5    16    1
    19     6     7    1
    20     7     8    2
    21     8     9    1
    22     8    14    1
    23     9    10    1
    24    10    12    1
    25    10    11    2
    26    12    13    1
    27    13    14    1
    28    14    16    1
    29    14    15    1
    30    16    17    1
    31    17    18    1
    32    18    19    1
    33    19    20    1



#	Name:			CHEMBL467
#	Creating user name:	trannguyen
#	Creation time:		Wed Dec  7 14:36:25 2022


#	Modifying user name:	trannguyen
#	Modification time:	Wed Dec  7 14:36:25 2022

@<TRIPOS>MOLECULE
CHEMBL467
 9 8 0 0 0
SMALL
GASTEIGER

@<TRIPOS>ATOM
      1 N           1.4435   28.2107    9.8079 N.am    1  UNL1       -0.3117
      2 C           1.8874   28.7414   10.9804 C.2     1  UNL1        0.3198
      3 O           2.0817   29.9408   11.1145 O.2     1  UNL1       -0.2509
      4 N           2.0987   27.8249   11.9634 N.am    1  UNL1       -0.1815
      5 O           2.1840   26.4572   11.6263 O.3     1  UNL1       -0.2940
      6 H           1.1752   28.9179    9.1338 H       1  UNL1        0.1465
      7 H           0.7680   27.4645    9.9202 H       1  UNL1        0.1465
      8 H           2.5396   28.1214   12.8275 H       1  UNL1        0.1838
      9 H           2.5179   26.4925   10.7073 H       1  UNL1        0.2414
@<TRIPOS>BOND
     1     1     2   am
     2     1     6    1
     3     1     7    1
     4     2     3    2
     5     2     4   am
     6     4     5    1
     7     4     8    1
     8     5     9    1



#	Name:			CHEMBL469912
#	Creating user name:	trannguyen
#	Creation time:		Wed Dec  7 14:36:25 2022


#	Modifying user name:	trannguyen
#	Modification time:	Wed Dec  7 14:36:25 2022

@<TRIPOS>MOLECULE
CHEMBL469912
 39 42 0 0 0
SMALL
GASTEIGER

@<TRIPOS>ATOM
      1 C           5.1475   33.0529    5.3687 C.3     1  UNL1        0.1328
      2 C           4.3558   31.9278    4.6925 C.3     1  UNL1        0.1668
      3 O           5.3264   31.1359    3.9610 O.3     1  UNL1       -0.3317
      4 C           6.5400   31.9149    3.8158 C.3     1  UNL1        0.2363
      5 C           6.2358   33.3229    4.3397 C.3     1  UNL1        0.1804
      6 O           7.3573   34.0103    4.8829 O.3     1  UNL1       -0.3785
      7 H           7.9165   34.2412    4.1083 H       1  UNL1        0.2106
      8 N           6.9992   31.8429    2.4404 N.ar    1  UNL1       -0.2695
      9 C           7.3120   30.7002    1.7543 C.ar    1  UNL1        0.1816
     10 N           7.7817   30.9608    0.5531 N.ar    1  UNL1       -0.2194
     11 C           7.7842   32.3411    0.4500 C.ar    1  UNL1        0.1486
     12 C           8.1609   33.2349   -0.5877 C.ar    1  UNL1        0.1544
     13 N           8.0172   34.5710   -0.3173 N.ar    1  UNL1       -0.2073
     14 C           7.5691   34.9721    0.8846 C.ar    1  UNL1        0.2015
     15 N           7.2026   34.2099    1.9277 N.ar    1  UNL1       -0.2048
     16 C           7.3195   32.9029    1.6319 C.ar    1  UNL1        0.1691
     17 N           8.6301   32.8492   -1.8560 N.pl3   1  UNL1       -0.2884
     18 C           7.8034   33.3139   -2.9618 C.3     1  UNL1        0.1137
     19 C          10.0728   32.9472   -2.0419 C.3     1  UNL1        0.1137
     20 C           5.1811   33.0898    7.8686 C.2     1  UNL1        0.2369
     21 O           4.2940   33.9214    7.9266 O.2     1  UNL1       -0.2737
     22 N           5.6831   32.6222    6.6673 N.am    1  UNL1       -0.3003
     23 H           6.3637   31.8692    6.7360 H       1  UNL1        0.1496
     24 C           5.8018   32.4373    9.1330 C.3     1  UNL1        0.1327
     25 N           5.2083   33.0372   10.3573 N.3     1  UNL1       -0.3148
     26 H           5.4214   34.0353   10.3584 H       1  UNL1        0.1192
     27 H           5.6892   32.6461   11.1676 H       1  UNL1        0.1192
     28 C           5.7919   30.8919    9.1692 C.3     1  UNL1        0.0512
     29 C           2.1221   28.9875   10.4391 C.ar    1  UNL1        0.1387
     30 C           3.3559   28.3931   10.6922 C.ar    1  UNL1        0.0366
     31 C           4.5313   28.9986   10.2475 C.ar    1  UNL1       -0.0011
     32 C           4.4953   30.2086    9.5405 C.ar    1  UNL1       -0.0201
     33 C           3.2485   30.7429    9.2014 C.ar    1  UNL1       -0.0011
     34 C           2.0711   30.1454    9.6645 C.ar    1  UNL1        0.0366
     35 C          -0.1982   28.8752   10.0757 C.3     1  UNL1        0.2525
     36 O           0.9208   28.4955   10.8731 O.3     1  UNL1       -0.4714
     37 C           3.2646   32.4203    3.7238 C.3     1  UNL1        0.1685
     38 O           1.9596   31.9909    4.1016 O.3     1  UNL1       -0.3794
     39 H           1.8048   31.1045    3.7324 H       1  UNL1        0.2105
@<TRIPOS>BOND
     1    35    36    1
     2    36    29    1
     3    29    30   ar
     4    29    34   ar
     5    30    31   ar
     6    31    32   ar
     7    32    28    1
     8    32    33   ar
     9    24    25    1
    10    24    20    1
    11    24    28    1
    12    25    26    1
    13    25    27    1
    14    20    21    2
    15    20    22   am
    16    22    23    1
    17     1     2    1
    18     1     5    1
    19     1    22    1
    20     2    37    1
    21     2     3    1
    22    37    38    1
    23    38    39    1
    24     3     4    1
    25     4     5    1
    26     4     8    1
    27     8     9   ar
    28     8    16   ar
    29     9    10   ar
    30    10    11   ar
    31    11    12   ar
    32    11    16   ar
    33    12    17    1
    34    12    13   ar
    35    17    18    1
    36    17    19    1
    37    13    14   ar
    38    14    15   ar
    39    15    16   ar
    40     5     6    1
    41     6     7    1
    42    33    34   ar



#	Name:			CHEMBL476
#	Creating user name:	trannguyen
#	Creation time:		Wed Dec  7 14:36:25 2022


#	Modifying user name:	trannguyen
#	Modification time:	Wed Dec  7 14:36:25 2022

@<TRIPOS>MOLECULE
CHEMBL476
 16 16 0 0 0
SMALL
GASTEIGER

@<TRIPOS>ATOM
      1 C           3.2604   29.6649   10.2494 C.ar    1  UNL1        0.1869
      2 N           4.5048   29.2984    9.7992 N.ar    1  UNL1       -0.3188
      3 H           5.1910   29.9462    9.4408 H       1  UNL1        0.1690
      4 C           4.6348   27.9495    9.9395 C.ar    1  UNL1        0.1763
      5 N           3.5456   27.4086   10.4348 N.ar    1  UNL1       -0.2178
      6 C           2.6619   28.4727   10.6217 C.ar    1  UNL1        0.1714
      7 C           1.3131   28.2993   11.1555 C.2     1  UNL1        0.2636
      8 N           0.3683   29.0320   10.4889 N.am    1  UNL1       -0.3240
      9 O           1.0123   27.5841   12.1012 O.2     1  UNL1       -0.2686
     10 H           0.6501   29.6106    9.7071 H       1  UNL1        0.1453
     11 H          -0.5941   28.9815   10.7825 H       1  UNL1        0.1453
     12 N           2.2775   31.3276    9.1969 N.2     1  UNL1       -0.0756
     13 N           2.8428   30.9487   10.2416 N.2     1  UNL1       -0.1132
     14 C           3.1366   33.5017    8.8517 C.3     1  UNL1        0.1358
     15 N           1.9934   32.6741    9.1976 N.pl3   1  UNL1       -0.2115
     16 C           1.0893   33.2055   10.2147 C.3     1  UNL1        0.1358
@<TRIPOS>BOND
     1    14    15    1
     2    15    16    1
     3    15    12    1
     4    12    13    2
     5    13     1    1
     6     1     2   ar
     7     1     6   ar
     8     2     3    1
     9     2     4   ar
    10     4     5   ar
    11     5     6   ar
    12     6     7    1
    13     7     8   am
    14     7     9    2
    15     8    10    1
    16     8    11    1



#	Name:			CHEMBL479
#	Creating user name:	trannguyen
#	Creation time:		Wed Dec  7 14:36:25 2022


#	Modifying user name:	trannguyen
#	Modification time:	Wed Dec  7 14:36:25 2022

@<TRIPOS>MOLECULE
CHEMBL479
 25 28 0 0 0
SMALL
GASTEIGER

@<TRIPOS>ATOM
      1 C           2.4092   34.8652   10.0559 C.ar    1  UNL1        0.0265
      2 C           3.7991   35.0187    9.9871 C.ar    1  UNL1        0.0067
      3 C           4.6145   33.9026    9.8130 C.ar    1  UNL1        0.0082
      4 C           4.0752   32.6299    9.6395 C.ar    1  UNL1        0.0431
      5 C           2.6743   32.4624    9.5828 C.ar    1  UNL1        0.0581
      6 C           1.8683   33.5937    9.8375 C.ar    1  UNL1        0.0215
      7 N           2.0946   31.1908    9.3563 N.pl3   1  UNL1       -0.2860
      8 C           2.7400   29.9676    9.6610 C.ar    1  UNL1        0.0576
      9 C           1.9929   28.8221    9.9851 C.ar    1  UNL1        0.0153
     10 C           2.6043   27.5976   10.2564 C.ar    1  UNL1        0.0013
     11 C           3.9957   27.4924   10.2109 C.ar    1  UNL1        0.0006
     12 C           4.7553   28.6306    9.9629 C.ar    1  UNL1        0.0077
     13 C           4.1477   29.8683    9.7170 C.ar    1  UNL1        0.0431
     14 S           5.2119   31.2717    9.4427 S.3     1  UNL1       -0.0844
     15 C          -0.2910   35.4120   10.6047 C.3     1  UNL1        0.0742
     16 S           1.3144   36.2405   10.3891 S.3     1  UNL1       -0.1127
     17 C           1.1463   31.1339    8.1933 C.3     1  UNL1        0.0970
     18 C           1.8156   31.0821    6.7923 C.3     1  UNL1        0.0377
     19 C           2.3126   32.4052    6.0659 C.3     1  UNL1        0.0593
     20 C           3.8424   32.5764    6.0784 C.3     1  UNL1        0.0161
     21 C           4.5403   31.7381    5.0155 C.3     1  UNL1        0.0028
     22 C           3.8591   31.7979    3.6486 C.3     1  UNL1        0.0174
     23 C           2.3291   31.8107    3.6887 C.3     1  UNL1        0.0721
     24 N           1.7593   32.6863    4.7149 N.3     1  UNL1       -0.2727
     25 C           1.9542   34.0902    4.2890 C.3     1  UNL1        0.0896
@<TRIPOS>BOND
     1    15    16    1
     2    16     1    1
     3     1     2   ar
     4     1     6   ar
     5     2     3   ar
     6     3     4   ar
     7     4     5   ar
     8     4    14    1
     9     5     6   ar
    10     5     7    1
    11     7    17    1
    12     7     8    1
    13    17    18    1
    14    18    19    1
    15    19    20    1
    16    19    24    1
    17    20    21    1
    18    21    22    1
    19    22    23    1
    20    23    24    1
    21    24    25    1
    22     8     9   ar
    23     8    13   ar
    24     9    10   ar
    25    10    11   ar
    26    11    12   ar
    27    12    13   ar
    28    13    14    1



#	Name:			CHEMBL482601
#	Creating user name:	trannguyen
#	Creation time:		Wed Dec  7 14:36:25 2022


#	Modifying user name:	trannguyen
#	Modification time:	Wed Dec  7 14:36:25 2022

@<TRIPOS>MOLECULE
CHEMBL482601
 21 20 0 0 0
SMALL
GASTEIGER

@<TRIPOS>ATOM
      1 C           1.9951   31.8959    3.8149 C.2     1  UNL1        0.0447
      2 C           3.0317   32.7092    3.4531 C.2     1  UNL1       -0.0173
      3 C           1.9571   31.6470    6.3987 C.1     1  UNL1       -0.0864
      4 C           1.9745   31.7611    5.2142 C.1     1  UNL1       -0.0641
      5 C           1.9360   31.5086    7.8359 C.3     1  UNL1        0.0764
      6 C           2.6384   32.7257    8.4739 C.3     1  UNL1        0.0140
      7 C           3.9659   32.4959    9.2702 C.3     1  UNL1        0.0010
      8 C           5.0350   31.4645    8.8350 C.3     1  UNL1        0.0000
      9 C           5.7707   30.8086    9.9510 C.3     1  UNL1        0.0000
     10 C           5.5189   29.3812   10.3883 C.3     1  UNL1        0.0000
     11 C           2.7676   29.0383   10.4743 C.3     1  UNL1        0.0000
     12 C           4.1480   28.8078    9.8707 C.3     1  UNL1        0.0000
     13 C           3.7931   33.7119    4.2987 C.3     1  UNL1        0.0267
     14 C           4.9572   33.1128    5.1012 C.3     1  UNL1        0.0047
     15 C           5.7926   32.0566    4.3701 C.3     1  UNL1        0.0009
     16 C           7.0261   32.5302    3.5733 C.3     1  UNL1        0.0117
     17 C           7.1363   32.5746    2.0545 C.3     1  UNL1        0.1094
     18 C           7.9792   31.3960    1.6232 C.2     1  UNL1        0.3138
     19 O           9.0785   31.4119    1.2737 O.2     1  UNL1       -0.2503
     20 O           7.2610   30.2486    1.6365 O.3     1  UNL1       -0.4802
     21 H           7.9361   29.5656    1.8236 H       1  UNL1        0.2951
@<TRIPOS>BOND
     1    11    12    1
     2    12    10    1
     3    10     9    1
     4     9     8    1
     5     8     7    1
     6     7     6    1
     7     6     5    1
     8     5     3    1
     9     3     4    3
    10     4     1    1
    11     1     2    2
    12     2    13    1
    13    13    14    1
    14    14    15    1
    15    15    16    1
    16    16    17    1
    17    17    18    1
    18    18    19    2
    19    18    20    1
    20    20    21    1



#	Name:			CHEMBL48449
#	Creating user name:	trannguyen
#	Creation time:		Wed Dec  7 14:36:25 2022


#	Modifying user name:	trannguyen
#	Modification time:	Wed Dec  7 14:36:25 2022

@<TRIPOS>MOLECULE
CHEMBL48449
 14 16 0 0 0
SMALL
GASTEIGER

@<TRIPOS>ATOM
      1 C           4.3455   32.2055    7.0969 C.3     1  UNL1        0.0142
      2 C           3.6758   32.5778    5.7744 C.3     1  UNL1        0.1266
      3 C           3.5746   34.0668    5.6589 C.2     1  UNL1        0.3254
      4 O           3.0364   34.7998    6.4732 O.2     1  UNL1       -0.2495
      5 O           4.1479   34.5019    4.5135 O.3     1  UNL1       -0.3923
      6 C           4.6230   33.4690    3.7812 C.2     1  UNL1        0.3254
      7 O           5.1361   33.5920    2.6798 O.2     1  UNL1       -0.2495
      8 C           4.4178   32.1693    4.4954 C.3     1  UNL1        0.1266
      9 C           5.7647   31.4739    4.6845 C.3     1  UNL1        0.0142
     10 C           3.3927   31.2560    3.8039 C.3     1  UNL1        0.1257
     11 C           2.1737   31.9840    3.2335 C.3     1  UNL1        0.0326
     12 C           1.4348   32.4195    4.4981 C.3     1  UNL1        0.0326
     13 C           2.3279   31.8599    5.6079 C.3     1  UNL1        0.1257
     14 O           2.7776   30.6335    4.9665 O.3     1  UNL1       -0.3576
@<TRIPOS>BOND
     1     2     3    1
     2     2     8    1
     3     2    13    1
     4     2     1    1
     5     3     5    1
     6     3     4    2
     7     5     6    1
     8     6     8    1
     9     6     7    2
    10     8    10    1
    11     8     9    1
    12    10    11    1
    13    10    14    1
    14    11    12    1
    15    12    13    1
    16    13    14    1



#	Name:			CHEMBL486985
#	Creating user name:	trannguyen
#	Creation time:		Wed Dec  7 14:36:25 2022


#	Modifying user name:	trannguyen
#	Modification time:	Wed Dec  7 14:36:25 2022

@<TRIPOS>MOLECULE
CHEMBL486985
 24 26 0 0 0
SMALL
GASTEIGER

@<TRIPOS>ATOM
      1 C           1.9479   28.4071    9.8352 C.3     1  UNL1        0.0260
      2 C           3.0997   29.3772    9.7412 C.2     1  UNL1       -0.0488
      3 C           4.2825   29.0611   10.3043 C.2     1  UNL1       -0.0346
      4 C           5.4957   29.9393   10.3006 C.3     1  UNL1        0.0254
      5 C           5.2692   31.3310    9.7063 C.3     1  UNL1        0.0049
      6 C           4.2713   31.2785    8.5295 C.3     1  UNL1        0.0038
      7 C           4.2482   32.5688    7.6117 C.3     1  UNL1        0.0006
      8 C           3.9119   33.8542    8.4118 C.3     1  UNL1        0.0000
      9 C           3.2071   32.3401    6.4535 C.3     1  UNL1        0.0000
     10 C           2.9962   33.5560    5.5393 C.3     1  UNL1        0.0000
     11 C           1.8424   31.8485    6.9595 C.3     1  UNL1        0.0003
     12 C           1.9642   30.5743    7.7916 C.3     1  UNL1        0.0037
     13 C           2.8761   30.7336    9.0300 C.3     1  UNL1        0.0149
     14 C           2.1705   31.6286   10.0753 C.3     1  UNL1        0.0040
     15 C           5.6746   32.8456    6.9976 C.3     1  UNL1        0.0046
     16 C           6.2938   31.7428    6.1259 C.3     1  UNL1        0.0284
     17 C           6.4442   32.1830    4.7047 C.2     1  UNL1        0.0312
     18 C           6.8131   33.3896    4.2802 C.2     1  UNL1        0.0794
     19 C           6.8236   33.3269    2.8213 C.2     1  UNL1        0.3430
     20 O           7.1163   34.2550    2.0925 O.2     1  UNL1       -0.2448
     21 O           6.4802   32.0763    2.4144 O.3     1  UNL1       -0.4177
     22 C           6.2310   31.2754    3.5572 C.3     1  UNL1        0.3081
     23 O           4.8982   30.8196    3.5474 O.3     1  UNL1       -0.3468
     24 H           4.8458   30.2014    2.8003 H       1  UNL1        0.2144
@<TRIPOS>BOND
     1     1     2    1
     2     2     3    2
     3     2    13    1
     4     3     4    1
     5     4     5    1
     6     5     6    1
     7     6     7    1
     8     6    13    1
     9     7     9    1
    10     7    15    1
    11     7     8    1
    12    15    16    1
    13    16    17    1
    14    17    18    2
    15    17    22    1
    16    18    19    1
    17    19    20    2
    18    19    21    1
    19    21    22    1
    20    22    23    1
    21    23    24    1
    22     9    11    1
    23     9    10    1
    24    11    12    1
    25    12    13    1
    26    13    14    1



#	Name:			CHEMBL487720
#	Creating user name:	trannguyen
#	Creation time:		Wed Dec  7 14:36:25 2022


#	Modifying user name:	trannguyen
#	Modification time:	Wed Dec  7 14:36:25 2022

@<TRIPOS>MOLECULE
CHEMBL487720
 33 34 0 0 0
SMALL
GASTEIGER

@<TRIPOS>ATOM
      1 C           7.4245   31.3827    7.2280 C.3     1  UNL1        0.1730
      2 C           8.8936   30.8919    7.3595 C.3     1  UNL1        0.0483
      3 C           9.5331   30.9552    8.7821 C.3     1  UNL1        0.0253
      4 C          11.0058   31.3570    8.6497 C.3     1  UNL1        0.0048
      5 C           8.8310   31.9169    9.7100 C.2     1  UNL1       -0.0305
      6 C           7.5202   32.1558    9.5572 C.2     1  UNL1       -0.0236
      7 C           6.9086   33.3654   10.0659 C.2     1  UNL1       -0.0091
      8 C           5.7305   33.8039    9.5938 C.2     1  UNL1       -0.0268
      9 C           4.9002   33.0152    8.6105 C.3     1  UNL1        0.0224
     10 C           3.4229   33.3991    8.6608 C.3     1  UNL1        0.0047
     11 C           5.1932   31.5018    8.7109 C.3     1  UNL1        0.0116
     12 C           6.7314   31.2612    8.6209 C.3     1  UNL1        0.0624
     13 O           7.3752   32.7440    6.7139 O.3     1  UNL1       -0.4519
     14 C           7.7497   32.9790    5.4155 C.2     1  UNL1        0.3158
     15 O           8.8670   33.2901    5.0720 O.2     1  UNL1       -0.2501
     16 C           6.5774   32.7767    4.4166 C.3     1  UNL1        0.0896
     17 C           6.5091   31.3235    3.9276 C.3     1  UNL1        0.0111
     18 C           6.8179   33.6943    3.2029 C.3     1  UNL1        0.0111
     19 C           4.1553   32.1084    5.1145 C.3     1  UNL1        0.0006
     20 C           5.2676   33.1538    5.1579 C.3     1  UNL1        0.0106
     21 C           4.5559   30.7660    9.9517 C.3     1  UNL1        0.0033
     22 C           4.7886   29.2461   10.1128 C.3     1  UNL1        0.0293
     23 C           3.5091   28.4020    9.9612 C.3     1  UNL1        0.1130
     24 O           3.7627   27.1638   10.6250 O.3     1  UNL1       -0.3844
     25 H           3.7286   27.3339   11.5800 H       1  UNL1        0.2103
     26 C           2.2855   29.1247   10.5666 C.3     1  UNL1        0.0588
     27 C           0.9078   28.7235    9.9838 C.3     1  UNL1        0.1185
     28 O           0.2787   27.8142   10.8951 O.3     1  UNL1       -0.3840
     29 H          -0.6219   27.6542   10.5624 H       1  UNL1        0.2104
     30 C          -0.0558   29.8662    9.6799 C.3     1  UNL1        0.0710
     31 C           0.5103   30.8007    8.6518 C.2     1  UNL1        0.0528
     32 O           1.3230   30.3857    7.7750 O.co2   1  UNL1       -0.5491
     33 O           0.2606   32.0367    8.7279 O.co2   1  UNL1       -0.5491
@<TRIPOS>UNITY_ATOM_ATTR
32 1
charge -1
@<TRIPOS>BOND
     1    19    20    1
     2    20    16    1
     3    16    17    1
     4    16    18    1
     5    16    14    1
     6    14    15    2
     7    14    13    1
     8     1     2    1
     9     1    12    1
    10     1    13    1
    11     2     3    1
    12     3     4    1
    13     3     5    1
    14     5     6    2
    15     6     7    1
    16     6    12    1
    17     7     8    2
    18     8     9    1
    19     9    10    1
    20     9    11    1
    21    11    21    1
    22    11    12    1
    23    21    22    1
    24    22    23    1
    25    23    24    1
    26    23    26    1
    27    24    25    1
    28    26    27    1
    29    27    28    1
    30    27    30    1
    31    28    29    1
    32    30    31    1
    33    31    32   ar
    34    31    33   ar






#	Name:			CHEMBL489540
#	Creating user name:	trannguyen
#	Creation time:		Wed Dec  7 14:36:25 2022


#	Modifying user name:	trannguyen
#	Modification time:	Wed Dec  7 14:36:25 2022

@<TRIPOS>MOLECULE
CHEMBL489540
 21 20 0 0 0
SMALL
GASTEIGER

@<TRIPOS>ATOM
      1 C           2.3334   31.5076    6.9255 C.1     1  UNL1       -0.0095
      2 C           2.8809   32.1561    6.0878 C.1     1  UNL1       -0.0509
      3 C           1.1196   29.9765    8.8204 C.1     1  UNL1       -0.0779
      4 C           1.6374   30.6551    7.9911 C.1     1  UNL1       -0.0138
      5 C           0.4914   29.1531    9.8267 C.3     1  UNL1        0.0770
      6 C           1.4401   28.9014   11.0001 C.3     1  UNL1        0.0140
      7 C           2.1892   27.5776   10.8425 C.3     1  UNL1        0.0010
      8 C           3.5436   27.7850   10.1625 C.3     1  UNL1        0.0000
      9 C           4.1359   29.1514   10.5098 C.3     1  UNL1        0.0000
     10 C           5.4701   29.3780    9.7973 C.3     1  UNL1        0.0000
     11 C           4.9198   31.7915    9.3229 C.3     1  UNL1        0.0000
     12 C           5.9289   30.8299    9.9295 C.3     1  UNL1        0.0000
     13 C           3.5267   32.9209    5.0806 C.2     1  UNL1        0.0456
     14 C           4.3438   32.3381    4.1895 C.2     1  UNL1       -0.0173
     15 C           5.0561   33.0976    3.1189 C.3     1  UNL1        0.0273
     16 C           6.5579   32.7996    3.1577 C.3     1  UNL1        0.0163
     17 C           7.1673   32.6989    1.7599 C.3     1  UNL1        0.1097
     18 C           7.9733   31.4314    1.5714 C.2     1  UNL1        0.3138
     19 O           9.1747   31.3756    1.3675 O.2     1  UNL1       -0.2503
     20 O           7.2170   30.3170    1.6527 O.3     1  UNL1       -0.4802
     21 H           6.2673   30.4855    1.7917 H       1  UNL1        0.2951
@<TRIPOS>BOND
     1    11    12    1
     2    12    10    1
     3    10     9    1
     4     9     8    1
     5     8     7    1
     6     7     6    1
     7     6     5    1
     8     5     3    1
     9     3     4    3
    10     4     1    1
    11     1     2    3
    12     2    13    1
    13    13    14    2
    14    14    15    1
    15    15    16    1
    16    16    17    1
    17    17    18    1
    18    18    19    2
    19    18    20    1
    20    20    21    1






#	Name:			CHEMBL49080
#	Creating user name:	trannguyen
#	Creation time:		Wed Dec  7 14:36:25 2022


#	Modifying user name:	trannguyen
#	Modification time:	Wed Dec  7 14:36:25 2022

@<TRIPOS>MOLECULE
CHEMBL49080
 21 21 0 0 0
SMALL
GASTEIGER

@<TRIPOS>ATOM
      1 C           2.6724   31.3819    9.4894 C.ar    1  UNL1        0.0074
      2 C           3.7524   30.5071    9.6584 C.ar    1  UNL1        0.0108
      3 C           3.5472   29.1448    9.9122 C.ar    1  UNL1        0.0711
      4 CL          4.9367   28.1245   10.0756 Cl      1  UNL1       -0.0810
      5 C           2.2500   28.6139   10.0522 C.ar    1  UNL1        0.0629
      6 N           2.0452   27.2177   10.1400 N.pl3   1  UNL1       -0.3557
      7 C           1.1736   29.4959    9.8675 C.ar    1  UNL1        0.0711
      8 CL         -0.4597   28.9237    9.9717 Cl      1  UNL1       -0.0810
      9 C           1.3733   30.8607    9.6134 C.ar    1  UNL1        0.0108
     10 H           2.8242   26.7187   10.5575 H       1  UNL1        0.1424
     11 H           1.1375   26.9659   10.5291 H       1  UNL1        0.1424
     12 C           2.8748   32.8575    9.1848 C.3     1  UNL1        0.1484
     13 O           1.6005   33.5022    9.1208 O.3     1  UNL1       -0.3786
     14 H           1.7858   34.4551    9.1941 H       1  UNL1        0.2108
     15 C           3.6316   33.0569    7.8489 C.3     1  UNL1        0.1027
     16 N           2.7698   33.5438    6.7453 N.3     1  UNL1       -0.2973
     17 H           1.8135   33.6104    7.0985 H       1  UNL1        0.1233
     18 C           1.9754   33.3769    4.4311 C.3     1  UNL1        0.0158
     19 C           2.7508   32.6551    5.5543 C.3     1  UNL1        0.0421
     20 C           2.0168   31.3362    5.8551 C.3     1  UNL1        0.0158
     21 C           4.1686   32.3613    5.0340 C.3     1  UNL1        0.0158
@<TRIPOS>BOND
     1    18    19    1
     2    19    20    1
     3    19    21    1
     4    19    16    1
     5    16    15    1
     6    16    17    1
     7    15    12    1
     8    12    13    1
     9    12     1    1
    10    13    14    1
    11     1     2   ar
    12     1     9   ar
    13     2     3   ar
    14     3     4    1
    15     3     5   ar
    16     5     6    1
    17     5     7   ar
    18     6    10    1
    19     6    11    1
    20     7     8    1
    21     7     9   ar



#	Name:			CHEMBL493
#	Creating user name:	trannguyen
#	Creation time:		Wed Dec  7 14:36:25 2022


#	Modifying user name:	trannguyen
#	Modification time:	Wed Dec  7 14:36:25 2022

@<TRIPOS>MOLECULE
CHEMBL493
 46 52 0 0 0
SMALL
GASTEIGER

@<TRIPOS>ATOM
      1 C          15.3000   30.5969    9.4201 C.3     1  UNL1        0.1561
      2 C          16.6976   31.0759    8.9410 C.2     1  UNL1        0.2440
      3 O          17.7206   30.8713    9.5911 O.2     1  UNL1       -0.2731
      4 N          16.6906   31.8658    7.8167 N.am    1  UNL1       -0.2734
      5 C          17.8616   32.5469    7.2948 C.3     1  UNL1        0.0937
      6 C          17.4681   32.9507    5.8733 C.3     1  UNL1        0.0234
      7 C          15.9375   32.9310    5.8969 C.3     1  UNL1        0.0285
      8 C          15.6597   31.7376    6.8067 C.3     1  UNL1        0.1465
      9 C          14.2196   31.5811    7.3389 C.3     1  UNL1        0.2754
     10 O          13.4874   30.8108    6.3939 O.3     1  UNL1       -0.3478
     11 O          13.5290   32.7958    7.5392 O.3     1  UNL1       -0.2976
     12 C          12.4317   32.5308    8.4358 C.3     1  UNL1        0.2253
     13 C          12.9646   31.3041    9.2070 C.2     1  UNL1        0.2719
     14 O          12.4712   30.8048   10.2128 O.2     1  UNL1       -0.2704
     15 N          14.1250   30.8721    8.5747 N.am    1  UNL1       -0.2271
     16 H          13.5330   31.3139    5.5642 H       1  UNL1        0.2145
     17 N          11.2419   32.1785    7.6736 N.am    1  UNL1       -0.2787
     18 C          10.9495   32.6701    6.4186 C.2     1  UNL1        0.2293
     19 O          11.6931   33.4543    5.8319 O.2     1  UNL1       -0.2746
     20 H          10.5158   31.7237    8.2106 H       1  UNL1        0.1519
     21 C           9.5849   32.2244    5.8333 C.3     1  UNL1        0.1141
     22 C           8.4519   32.2915    6.8528 C.2     1  UNL1       -0.0190
     23 C           7.1788   32.2307    6.4003 C.2     1  UNL1       -0.0112
     24 C           5.9905   32.5079    7.2367 C.ar    1  UNL1       -0.0019
     25 C           5.9433   32.8260    8.6013 C.ar    1  UNL1       -0.0002
     26 C           4.7279   33.1417    9.2292 C.ar    1  UNL1        0.0015
     27 C           3.5173   33.1714    8.5232 C.ar    1  UNL1        0.0170
     28 C           3.5753   32.8506    7.1668 C.ar    1  UNL1        0.0567
     29 N           2.5986   32.7884    6.1969 N.ar    1  UNL1       -0.3483
     30 H           1.6201   32.9918    6.3405 H       1  UNL1        0.1664
     31 C           3.1441   32.3772    5.0095 C.ar    1  UNL1        0.0879
     32 BR          2.1762   32.1126    3.4423 Br      1  UNL1       -0.0305
     33 C           4.4888   32.1769    5.1980 C.ar    1  UNL1        0.0029
     34 C           4.7693   32.5099    6.5436 C.ar    1  UNL1        0.0133
     35 C           5.5626   31.6503    4.3224 C.3     1  UNL1        0.0488
     36 C           7.0008   31.9352    4.8871 C.3     1  UNL1        0.0843
     37 N           7.8172   32.8620    4.0527 N.3     1  UNL1       -0.2681
     38 C           7.1509   34.1360    3.7769 C.3     1  UNL1        0.0899
     39 C           9.1650   33.1090    4.6293 C.3     1  UNL1        0.0859
     40 C          12.2179   33.7526    9.3686 C.3     1  UNL1        0.0516
     41 C          10.7722   33.8556    9.8799 C.3     1  UNL1        0.0047
     42 C          12.6243   35.0877    8.7303 C.3     1  UNL1        0.0047
     43 C          15.3353   29.1595    9.9708 C.3     1  UNL1        0.0294
     44 C          14.6346   29.2138   12.3750 C.3     1  UNL1        0.0001
     45 C          15.8137   28.9740   11.4247 C.3     1  UNL1        0.0021
     46 C          16.4107   27.5972   11.6976 C.3     1  UNL1        0.0001
@<TRIPOS>BOND
     1    44    45    1
     2    45    46    1
     3    45    43    1
     4    43     1    1
     5     1     2    1
     6     1    15    1
     7     2     3    2
     8     2     4   am
     9     4     5    1
    10     4     8    1
    11     5     6    1
    12     6     7    1
    13     7     8    1
    14     8     9    1
    15     9    10    1
    16     9    11    1
    17     9    15    1
    18    10    16    1
    19    11    12    1
    20    12    13    1
    21    12    40    1
    22    12    17    1
    23    17    18   am
    24    17    20    1
    25    18    19    2
    26    18    21    1
    27    21    22    1
    28    21    39    1
    29    22    23    2
    30    23    24    1
    31    23    36    1
    32    24    25   ar
    33    24    34   ar
    34    25    26   ar
    35    26    27   ar
    36    27    28   ar
    37    28    29   ar
    38    28    34   ar
    39    29    31   ar
    40    29    30    1
    41    31    33   ar
    42    31    32    1
    43    33    34   ar
    44    33    35    1
    45    35    36    1
    46    36    37    1
    47    37    39    1
    48    37    38    1
    49    40    41    1
    50    40    42    1
    51    13    14    2
    52    13    15   am



#	Name:			CHEMBL495778
#	Creating user name:	trannguyen
#	Creation time:		Wed Dec  7 14:36:25 2022


#	Modifying user name:	trannguyen
#	Modification time:	Wed Dec  7 14:36:25 2022

@<TRIPOS>MOLECULE
CHEMBL495778
 13 13 0 0 0
SMALL
GASTEIGER

@<TRIPOS>ATOM
      1 C           2.3521   30.1266   10.0887 C.3     1  UNL1        0.2970
      2 O           1.8932   30.8696   11.2043 O.3     1  UNL1       -0.3460
      3 O           1.3414   30.1690    9.0832 O.3     1  UNL1       -0.4172
      4 C           1.8310   30.7997    7.9873 C.2     1  UNL1        0.3465
      5 O           1.2260   30.9820    6.9480 O.2     1  UNL1       -0.2447
      6 C           3.2044   31.2283    8.2167 C.2     1  UNL1        0.1207
      7 C           3.5057   30.8360    9.4528 C.2     1  UNL1        0.1896
      8 H           1.2100   30.3130   11.6103 H       1  UNL1        0.2146
      9 C           3.7051   27.9768   10.0776 C.2     1  UNL1       -0.0027
     10 C           2.6437   28.6877   10.5082 C.2     1  UNL1        0.0261
     11 C           1.6551   28.0379   11.4463 C.3     1  UNL1        0.0330
     12 O           4.6680   31.0240   10.1562 O.2     1  UNL1       -0.4691
     13 C           5.8701   31.0596    9.3969 C.3     1  UNL1        0.2523
@<TRIPOS>BOND
     1     9    10    2
     2    10    11    1
     3    10     1    1
     4     1     2    1
     5     1     3    1
     6     1     7    1
     7     2     8    1
     8     3     4    1
     9     4     5    2
    10     4     6    1
    11     6     7    2
    12     7    12    1
    13    12    13    1



#	Name:			CHEMBL499
#	Creating user name:	trannguyen
#	Creation time:		Wed Dec  7 14:36:25 2022


#	Modifying user name:	trannguyen
#	Modification time:	Wed Dec  7 14:36:25 2022

@<TRIPOS>MOLECULE
CHEMBL499
 23 24 0 0 0
SMALL
GASTEIGER

@<TRIPOS>ATOM
      1 O           3.0136   31.8874    6.9944 O.3     1  UNL1       -0.4553
      2 C           2.6792   32.1676    8.2961 C.ar    1  UNL1        0.2661
      3 N           2.6186   33.4467    8.6556 N.ar    1  UNL1       -0.1530
      4 S           2.1077   33.4311   10.2368 S.2     1  UNL1        0.1206
      5 N           2.0382   31.7982   10.5062 N.ar    1  UNL1       -0.1716
      6 C           2.4127   31.1895    9.3619 C.ar    1  UNL1        0.1954
      7 N           2.4647   29.8181    9.2589 N.pl3   1  UNL1       -0.2838
      8 C           3.7092   29.0781    9.5426 C.3     1  UNL1        0.1244
      9 C           3.7647   28.6650   11.0267 C.3     1  UNL1        0.1636
     10 O           2.6050   27.9109   11.4189 O.3     1  UNL1       -0.3501
     11 C           1.4079   28.6752   11.1868 C.3     1  UNL1        0.1636
     12 C           1.2784   29.0390    9.6980 C.3     1  UNL1        0.1244
     13 C           1.9128   32.0984    6.0832 C.3     1  UNL1        0.2376
     14 C           2.2539   33.2019    5.0733 C.3     1  UNL1        0.1698
     15 O           2.9655   34.2862    5.6802 O.3     1  UNL1       -0.3793
     16 H           2.3511   34.6916    6.3173 H       1  UNL1        0.2106
     17 C           3.0681   32.6569    3.8774 C.3     1  UNL1        0.1020
     18 N           4.0871   31.6443    4.2168 N.3     1  UNL1       -0.2975
     19 H           3.9272   31.3592    5.1877 H       1  UNL1        0.1232
     20 C           6.3494   30.9740    3.4422 C.3     1  UNL1        0.0158
     21 C           5.4884   32.0982    4.0450 C.3     1  UNL1        0.0421
     22 C           6.0709   32.4322    5.4358 C.3     1  UNL1        0.0158
     23 C           5.5956   33.3612    3.1695 C.3     1  UNL1        0.0158
@<TRIPOS>BOND
     1    20    21    1
     2    21    22    1
     3    21    23    1
     4    21    18    1
     5    18    17    1
     6    18    19    1
     7    14    15    1
     8    14    13    1
     9    14    17    1
    10    15    16    1
    11    13     1    1
    12     1     2    1
    13     2     3   ar
    14     2     6   ar
    15     3     4   ar
    16     4     5   ar
    17     5     6   ar
    18     6     7    1
    19     7     8    1
    20     7    12    1
    21     8     9    1
    22     9    10    1
    23    10    11    1
    24    11    12    1



#	Name:			CHEMBL499815
#	Creating user name:	trannguyen
#	Creation time:		Wed Dec  7 14:36:25 2022


#	Modifying user name:	trannguyen
#	Modification time:	Wed Dec  7 14:36:25 2022

@<TRIPOS>MOLECULE
CHEMBL499815
 51 55 0 0 0
SMALL
GASTEIGER

@<TRIPOS>ATOM
      1 C           5.1580   31.7022    9.0727 C.3     1  UNL1        0.2796
      2 O           5.9077   32.5683    8.2036 O.3     1  UNL1       -0.3250
      3 C           5.3949   32.4551    6.8359 C.3     1  UNL1        0.1790
      4 C           4.0288   33.1436    6.6631 C.3     1  UNL1        0.2058
      5 C           3.2580   33.2020    7.9916 C.3     1  UNL1        0.2198
      6 C           3.6757   32.1123    9.0005 C.3     1  UNL1        0.2564
      7 C           6.4811   33.0731    5.9346 C.3     1  UNL1        0.1694
      8 O           6.0112   34.0512    4.9968 O.3     1  UNL1       -0.3794
      9 H           5.0375   33.9155    4.9250 H       1  UNL1        0.2105
     10 O           5.6872   31.6434   10.4396 O.3     1  UNL1       -0.3303
     11 C           8.5083   40.1015   11.7998 C.2     1  UNL1       -0.0068
     12 C           9.1270   39.2974   10.9258 C.2     1  UNL1       -0.0183
     13 C           8.1987   38.8714    9.4461 C.3     1  UNL1        0.0207
     14 C           9.5013   38.4864    9.5305 C.3     1  UNL1        0.0041
     15 C           8.4813   37.1831   10.7864 C.3     1  UNL1        0.0004
     16 C           9.2096   35.8023   11.0549 C.3     1  UNL1        0.0027
     17 C           9.0010   33.9726   10.9790 C.3     1  UNL1        0.0029
     18 C           9.8683   33.2897   12.1482 C.3     1  UNL1        0.0001
     19 C           7.4832   33.3264   11.2922 C.3     1  UNL1        0.0297
     20 C           7.1387   31.8716   10.6973 C.3     1  UNL1        0.1184
     21 C           8.0597   31.2762    9.5739 C.3     1  UNL1        0.0407
     22 C           9.5766   31.6907    9.3477 C.3     1  UNL1        0.1013
     23 C           9.7616   33.2463    9.6903 C.3     1  UNL1        0.0107
     24 C          11.0923   34.0141    9.2485 C.3     1  UNL1        0.0006
     25 C          11.2407   35.6275    9.5057 C.3     1  UNL1        0.0027
     26 C          10.0019   36.5717   10.0109 C.3     1  UNL1        0.0287
     27 C           8.6731   37.4907    8.7539 C.3     1  UNL1        0.0068
     28 C          10.5501   38.0640   11.1461 C.3     1  UNL1        0.1286
     29 O          11.7787   38.6172   10.6762 O.3     1  UNL1       -0.3804
     30 H          11.6166   39.5573   10.4780 H       1  UNL1        0.2108
     31 C           9.9225   31.1504    7.8415 C.2     1  UNL1        0.3133
     32 O           9.1414   31.1306    6.9310 O.2     1  UNL1       -0.2503
     33 O          11.1957   30.7197    7.6162 O.3     1  UNL1       -0.4802
     34 H          11.3218   30.8155    6.6406 H       1  UNL1        0.2951
     35 O           3.1970   32.5455    5.6551 O.3     1  UNL1       -0.2384
     36 S           2.6962   33.4881    4.4089 S.3     1  UNL1       -0.0001
     37 O           1.2404   33.3735    4.4935 O.2     1  UNL1       -0.3452
     38 O           3.1693   34.8512    4.7985 O.2     1  UNL1       -0.3452
     39 O           3.2675   32.9575    3.1990 O.3     1  UNL1       -0.2682
     40 O           3.5178   34.4430    8.6610 O.3     1  UNL1       -0.2371
     41 S           2.6329   34.8486    9.9670 S.3     1  UNL1       -0.0000
     42 O           2.3849   36.3031    9.7316 O.2     1  UNL1       -0.3452
     43 O           1.5070   34.0018    9.9644 O.2     1  UNL1       -0.3452
     44 O           3.6015   34.6454   11.0594 O.3     1  UNL1       -0.2682
     45 O           2.9400   30.8928    8.7248 O.3     1  UNL1       -0.4442
     46 C           2.2345   30.4007    9.7335 C.2     1  UNL1        0.3171
     47 O           2.1729   30.9480   10.9081 O.2     1  UNL1       -0.2501
     48 C           1.9002   28.9999    9.6402 C.3     1  UNL1        0.1096
     49 C           2.6523   27.8312   10.1561 C.3     1  UNL1        0.0111
     50 C           4.1673   27.6236    9.9729 C.3     1  UNL1        0.0006
     51 C           2.0262   27.4677   11.4329 C.3     1  UNL1        0.0006
@<TRIPOS>BOND
     1    11    12    2
     2    12    13    1
     3    12    28    1
     4    13    14    1
     5    13    27    1
     6    14    15    1
     7    15    16    1
     8    16    17    1
     9    16    26    1
    10    17    19    1
    11    17    23    1
    12    17    18    1
    13    19    20    1
    14    20    21    1
    15    20    10    1
    16     1     2    1
    17     1     6    1
    18     1    10    1
    19     2     3    1
    20     3     7    1
    21     3     4    1
    22     7     8    1
    23     8     9    1
    24     4     5    1
    25     4    35    1
    26    35    36    1
    27    36    37    2
    28    36    38    2
    29    36    39    1
    30     5    40    1
    31     5     6    1
    32    40    41    1
    33    41    42    2
    34    41    43    2
    35    41    44    1
    36     6    45    1
    37    45    46    1
    38    46    47    2
    39    46    48    1
    40    48    49    1
    41    49    50    1
    42    49    51    1
    43    21    22    1
    44    22    23    1
    45    22    31    1
    46    31    32    2
    47    31    33    1
    48    33    34    1
    49    23    24    1
    50    24    25    1
    51    26    25    1
    52    26    27    1
    53    26    28    1
    54    28    29    1
    55    29    30    1



#	Name:			CHEMBL501307
#	Creating user name:	trannguyen
#	Creation time:		Wed Dec  7 14:36:25 2022


#	Modifying user name:	trannguyen
#	Modification time:	Wed Dec  7 14:36:25 2022

@<TRIPOS>MOLECULE
CHEMBL501307
 17 16 0 0 0
SMALL
GASTEIGER

@<TRIPOS>ATOM
      1 C           2.7033   27.8137   10.4482 C.3     1  UNL1        0.0770
      2 C           4.7689   29.4150   10.1201 C.1     1  UNL1       -0.0141
      3 C           3.8356   28.6915   10.2683 C.1     1  UNL1       -0.0779
      4 C           6.7751   30.9701    9.8017 C.1     1  UNL1       -0.0779
      5 C           5.8417   30.2466    9.9498 C.1     1  UNL1       -0.0141
      6 C           7.9074   31.8479    9.6220 C.3     1  UNL1        0.0770
      7 C           8.4085   31.8169    8.1687 C.3     1  UNL1        0.0140
      8 C          10.3921   30.2862    8.5830 C.3     1  UNL1        0.0000
      9 C           9.1042   30.4982    7.8018 C.3     1  UNL1        0.0010
     10 C           1.4989   28.5893   11.0048 C.3     1  UNL1        0.0140
     11 C           0.4813   28.9566    9.9150 C.3     1  UNL1        0.0016
     12 C           1.0419   30.0010    8.9381 C.3     1  UNL1        0.0117
     13 C           0.4804   31.4078    9.1585 C.3     1  UNL1        0.1094
     14 C           1.4309   32.3299    9.8693 C.2     1  UNL1        0.3138
     15 O           2.3359   31.9931   10.6202 O.2     1  UNL1       -0.2503
     16 O           1.2337   33.6272    9.5763 O.3     1  UNL1       -0.4802
     17 H           1.9149   34.0955   10.1035 H       1  UNL1        0.2951
@<TRIPOS>BOND
     1     8     9    1
     2     9     7    1
     3     7     6    1
     4     6     4    1
     5     4     5    3
     6     5     2    1
     7     2     3    3
     8     3     1    1
     9     1    10    1
    10    10    11    1
    11    11    12    1
    12    12    13    1
    13    13    14    1
    14    14    15    2
    15    14    16    1
    16    16    17    1



#	Name:			CHEMBL502620
#	Creating user name:	trannguyen
#	Creation time:		Wed Dec  7 14:36:25 2022


#	Modifying user name:	trannguyen
#	Modification time:	Wed Dec  7 14:36:25 2022

@<TRIPOS>MOLECULE
CHEMBL502620
 62 68 0 0 0
SMALL
GASTEIGER

@<TRIPOS>ATOM
      1 C          10.3289   36.5444    3.4725 C.3     1  UNL1        0.1048
      2 O           9.3516   37.5428    3.1008 O.3     1  UNL1       -0.3858
      3 C          10.5143   35.5399    2.3107 C.3     1  UNL1        0.0621
      4 C           9.2299   34.7589    1.9984 C.3     1  UNL1        0.1449
      5 C           8.6409   34.1284    3.2512 C.ar    1  UNL1        0.0352
      6 C           8.7253   34.7907    4.4878 C.ar    1  UNL1       -0.0084
      7 C           7.8469   34.4199    5.5233 C.ar    1  UNL1       -0.0004
      8 C           6.8798   33.4283    5.3155 C.ar    1  UNL1        0.0446
      9 C           6.8773   32.6981    4.1336 C.ar    1  UNL1        0.0755
     10 C           7.8182   32.9927    3.1433 C.ar    1  UNL1        0.1347
     11 O           7.9288   32.2359    2.0083 O.3     1  UNL1       -0.5057
     12 C           5.7994   31.7255    3.8732 C.2     1  UNL1        0.2016
     13 O           5.8484   30.9874    2.8909 O.2     1  UNL1       -0.2864
     14 C           4.6097   31.7178    4.7400 C.ar    1  UNL1        0.0758
     15 C           3.4420   31.0505    4.3496 C.ar    1  UNL1        0.1368
     16 O           3.3326   30.3569    3.1749 O.3     1  UNL1       -0.5054
     17 C           2.3058   31.0918    5.1532 C.ar    1  UNL1        0.0367
     18 C           2.3334   31.7883    6.3616 C.ar    1  UNL1        0.0032
     19 C           3.4961   32.4506    6.7612 C.ar    1  UNL1        0.0035
     20 C           4.6316   32.4247    5.9421 C.ar    1  UNL1        0.0450
     21 C           5.8343   33.1920    6.3310 C.2     1  UNL1        0.1959
     22 O           5.9385   33.6673    7.4541 O.2     1  UNL1       -0.2866
     23 C           9.8080   35.8369    4.7543 C.3     1  UNL1        0.1457
     24 H           8.7203   37.1311    2.4759 H       1  UNL1        0.2103
     25 H           7.2067   31.5712    1.9839 H       1  UNL1        0.2922
     26 H           4.2135   30.3421    2.7394 H       1  UNL1        0.2922
     27 C          12.7837   36.9336    2.7275 C.3     1  UNL1        0.0025
     28 C          11.6462   37.3427    3.6575 C.3     1  UNL1        0.0279
     29 C          10.9403   35.1589    5.5422 C.2     1  UNL1        0.3230
     30 O          11.6894   34.3018    5.1168 O.2     1  UNL1       -0.2497
     31 O          10.9081   35.6185    6.8343 O.3     1  UNL1       -0.4441
     32 C          10.7259   34.6095    7.8293 C.3     1  UNL1        0.2556
     33 O           8.3102   35.7320    1.4149 O.3     1  UNL1       -0.3283
     34 C           7.6920   35.3134    0.1914 C.3     1  UNL1        0.2368
     35 C           7.4719   36.5014   -0.7652 C.3     1  UNL1        0.0798
     36 C           8.7011   36.7973   -1.6501 C.3     1  UNL1        0.0925
     37 C           9.2187   35.4583   -2.2702 C.3     1  UNL1        0.1594
     38 C           9.6010   34.6087   -1.0363 C.3     1  UNL1        0.1462
     39 C          10.4565   33.3672   -1.2691 C.3     1  UNL1        0.0348
     40 O           8.3859   34.2266   -0.4032 O.3     1  UNL1       -0.3304
     41 N           8.4687   37.9444   -2.5669 N.3     1  UNL1       -0.2692
     42 C           7.1277   38.5062   -2.3856 C.3     1  UNL1        0.0897
     43 C           9.4640   39.0110   -2.4912 C.3     1  UNL1        0.0897
     44 O           8.1560   34.9056   -3.0908 O.3     1  UNL1       -0.3290
     45 C           8.5176   34.6477   -4.4415 C.3     1  UNL1        0.2377
     46 C           7.6667   33.4977   -5.0257 C.3     1  UNL1        0.0931
     47 C           6.4397   33.9552   -5.8189 C.3     1  UNL1        0.1450
     48 O           5.9510   32.8926   -6.6465 O.3     1  UNL1       -0.3817
     49 C           6.8058   35.1751   -6.6882 C.3     1  UNL1        0.1715
     50 C           7.2307   36.2342   -5.6641 C.3     1  UNL1        0.1473
     51 C           7.2701   37.6657   -6.1703 C.3     1  UNL1        0.0348
     52 O           8.5218   35.8650   -5.1836 O.3     1  UNL1       -0.3304
     53 H           5.8808   32.0925   -6.0981 H       1  UNL1        0.2104
     54 O           7.8866   34.7220   -7.5222 O.3     1  UNL1       -0.3280
     55 C           7.7257   34.7987   -8.9218 C.3     1  UNL1        0.2359
     56 C           9.1178   34.7672   -9.5536 C.3     1  UNL1        0.0692
     57 C           9.8699   33.5165   -9.1205 C.3     1  UNL1        0.0723
     58 C           9.0215   32.2882   -9.3416 C.2     1  UNL1        0.1777
     59 O           9.5524   31.1939   -9.5450 O.2     1  UNL1       -0.2935
     60 C           7.5024   32.4443   -9.1511 C.3     1  UNL1        0.1746
     61 C           6.7696   31.4584  -10.0520 C.3     1  UNL1        0.0402
     62 O           6.9599   33.7275   -9.4518 O.3     1  UNL1       -0.3254
@<TRIPOS>BOND
     1    27    28    1
     2     1     3    1
     3     1    23    1
     4     1     2    1
     5     1    28    1
     6     2    24    1
     7     3     4    1
     8     4     5    1
     9     4    33    1
    10    33    34    1
    11    34    35    1
    12    34    40    1
    13    35    36    1
    14    36    41    1
    15    36    37    1
    16    41    42    1
    17    41    43    1
    18    37    44    1
    19    37    38    1
    20    44    45    1
    21    45    46    1
    22    45    52    1
    23    46    47    1
    24    47    48    1
    25    47    49    1
    26    48    53    1
    27    49    54    1
    28    49    50    1
    29    54    55    1
    30    55    56    1
    31    55    62    1
    32    56    57    1
    33    57    58    1
    34    58    59    2
    35    58    60    1
    36    60    61    1
    37    60    62    1
    38    50    51    1
    39    50    52    1
    40    38    39    1
    41    38    40    1
    42     5     6   ar
    43     5    10   ar
    44     6     7   ar
    45     6    23    1
    46     7     8   ar
    47     8     9   ar
    48     8    21    1
    49     9    10   ar
    50     9    12    1
    51    10    11    1
    52    11    25    1
    53    12    13    2
    54    12    14    1
    55    14    15   ar
    56    14    20   ar
    57    15    16    1
    58    15    17   ar
    59    16    26    1
    60    17    18   ar
    61    18    19   ar
    62    19    20   ar
    63    20    21    1
    64    21    22    2
    65    23    29    1
    66    29    30    2
    67    29    31    1
    68    31    32    1



#	Name:			CHEMBL502896
#	Creating user name:	trannguyen
#	Creation time:		Wed Dec  7 14:36:25 2022


#	Modifying user name:	trannguyen
#	Modification time:	Wed Dec  7 14:36:25 2022

@<TRIPOS>MOLECULE
CHEMBL502896
 25 26 0 0 0
SMALL
GASTEIGER

@<TRIPOS>ATOM
      1 O           4.0515   32.4463    5.3168 O.3     1  UNL1       -0.4241
      2 C           3.5211   31.8935    6.4221 C.ar    1  UNL1        0.1484
      3 C           4.2512   31.9073    7.6176 C.ar    1  UNL1        0.0373
      4 C           3.6865   31.3903    8.7832 C.ar    1  UNL1       -0.0011
      5 C           2.3910   30.8498    8.7651 C.ar    1  UNL1       -0.0214
      6 C           1.6704   30.8344    7.5498 C.ar    1  UNL1       -0.0011
      7 C           2.2334   31.3597    6.3972 C.ar    1  UNL1        0.0373
      8 C           1.8139   30.2844   10.0460 C.3     1  UNL1        0.0380
      9 C           2.5821   29.0612   10.5777 C.3     1  UNL1        0.1140
     10 C           1.6909   27.9707   11.1104 C.2     1  UNL1        0.3141
     11 O           2.1679   26.9851   11.6540 O.2     1  UNL1       -0.2503
     12 O           0.3534   28.0813   10.9868 O.3     1  UNL1       -0.4802
     13 H          -0.0419   28.8527   10.5547 H       1  UNL1        0.2951
     14 C           4.8224   31.7793    4.4296 C.2     1  UNL1        0.3209
     15 O           4.3105   31.2262    3.4694 O.2     1  UNL1       -0.2497
     16 C           7.0847   34.2523    2.7773 C.3     1  UNL1        0.0155
     17 C           6.6413   32.8796    2.1951 C.3     1  UNL1        0.0019
     18 C           6.9974   31.7078    3.1359 C.3     1  UNL1        0.0111
     19 C           6.3271   31.8931    4.5228 C.3     1  UNL1        0.0995
     20 C           6.7345   33.2539    5.1311 C.3     1  UNL1        0.0111
     21 C           6.3920   34.4205    4.1794 C.3     1  UNL1        0.0019
     22 N           8.0031   34.8320   -0.6804 N.3     1  UNL1       -0.3211
     23 C           8.8243   34.6356    2.6306 C.3     1  UNL1        0.0651
     24 H           9.6918   33.5285    1.6400 H       1  UNL1        0.1189
     25 H           8.9776   34.4353    1.2323 H       1  UNL1        0.1189
@<TRIPOS>BOND
     1    22    23    1
     2    22    24    1
     3    22    25    1
     4    23    16    1
     5    16    17    1
     6    16    21    1
     7    17    18    1
     8    18    19    1
     9    19    14    1
    10    19    20    1
    11    14    15    2
    12    14     1    1
    13     1     2    1
    14     2     3   ar
    15     2     7   ar
    16     3     4   ar
    17     4     5   ar
    18     5     8    1
    19     5     6   ar
    20     8     9    1
    21     9    10    1
    22    10    11    2
    23    10    12    1
    24    12    13    1
    25     6     7   ar
    26    20    21    1



#	Name:			CHEMBL504760
#	Creating user name:	trannguyen
#	Creation time:		Wed Dec  7 14:36:25 2022


#	Modifying user name:	trannguyen
#	Modification time:	Wed Dec  7 14:36:25 2022

@<TRIPOS>MOLECULE
CHEMBL504760
 11 12 0 0 0
SMALL
GASTEIGER

@<TRIPOS>ATOM
      1 C           5.0037   32.2261    6.4315 C.3     1  UNL1        0.0004
      2 C           3.7236   32.9331    5.9436 C.3     1  UNL1        0.0066
      3 C           3.1856   33.7366    7.1450 C.3     1  UNL1        0.0004
      4 C           3.9087   33.7771    4.6528 C.3     1  UNL1        0.0077
      5 C           2.4593   34.2099    4.3093 C.3     1  UNL1        0.0009
      6 C           1.6142   32.9826    4.7240 C.3     1  UNL1        0.0069
      7 C           2.6797   32.0026    5.2666 C.3     1  UNL1        0.0515
      8 C           2.1437   30.8448    6.0739 C.3     1  UNL1        0.0073
      9 C           3.4478   31.5968    4.0039 C.2     1  UNL1        0.1498
     10 O           3.3299   30.5447    3.3984 O.2     1  UNL1       -0.2961
     11 C           4.3429   32.7449    3.5814 C.3     1  UNL1        0.0645
@<TRIPOS>BOND
     1     1     2    1
     2     2     4    1
     3     2     7    1
     4     2     3    1
     5     4     5    1
     6     4    11    1
     7     5     6    1
     8     6     7    1
     9     7     9    1
    10     7     8    1
    11     9    11    1
    12     9    10    2



#	Name:			CHEMBL506
#	Creating user name:	trannguyen
#	Creation time:		Wed Dec  7 14:36:25 2022


#	Modifying user name:	trannguyen
#	Modification time:	Wed Dec  7 14:36:25 2022

@<TRIPOS>MOLECULE
CHEMBL506
 22 23 0 0 0
SMALL
GASTEIGER

@<TRIPOS>ATOM
      1 C           1.8742   29.8378    9.3934 C.ar    1  UNL1        0.1401
      2 C           1.6142   30.7196    8.3536 C.ar    1  UNL1        0.0527
      3 C           2.5997   31.5878    7.8515 C.ar    1  UNL1        0.0655
      4 C           3.9209   31.4920    8.3574 C.ar    1  UNL1        0.0945
      5 N           4.9104   32.2925    7.8791 N.ar    1  UNL1       -0.2426
      6 C           6.1589   32.1441    8.3846 C.ar    1  UNL1        0.0989
      7 C           6.4971   31.2317    9.3640 C.ar    1  UNL1        0.0207
      8 C           5.4918   30.4224    9.8681 C.ar    1  UNL1        0.0032
      9 C           4.1842   30.5486    9.3755 C.ar    1  UNL1        0.0219
     10 C           3.1632   29.7353    9.8957 C.ar    1  UNL1        0.0385
     11 C           0.9859   28.3938   11.0285 C.3     1  UNL1        0.2525
     12 O           0.8051   29.0892    9.8018 O.3     1  UNL1       -0.4714
     13 N           2.3216   32.4526    6.7660 N.pl3   1  UNL1       -0.3328
     14 H           1.8380   33.2859    7.1181 H       1  UNL1        0.1468
     15 C           1.8204   31.9190    5.4963 C.3     1  UNL1        0.0692
     16 C           1.3257   33.0655    4.6095 C.3     1  UNL1        0.0212
     17 C           2.9131   31.0790    4.8055 C.3     1  UNL1        0.0209
     18 C           3.7473   31.8717    3.7784 C.3     1  UNL1        0.0185
     19 C           5.0811   32.3266    4.3822 C.3     1  UNL1        0.0652
     20 N           4.9266   33.5634    5.1428 N.3     1  UNL1       -0.3211
     21 H           4.6015   34.3060    4.5239 H       1  UNL1        0.1189
     22 H           5.8370   33.8639    5.4899 H       1  UNL1        0.1189
@<TRIPOS>BOND
     1    11    12    1
     2    12     1    1
     3     1     2   ar
     4     1    10   ar
     5     2     3   ar
     6     3    13    1
     7     3     4   ar
     8    13    15    1
     9    13    14    1
    10    15    16    1
    11    15    17    1
    12    17    18    1
    13    18    19    1
    14    19    20    1
    15    20    21    1
    16    20    22    1
    17     4     5   ar
    18     4     9   ar
    19     5     6   ar
    20     6     7   ar
    21     7     8   ar
    22     8     9   ar
    23     9    10   ar



#	Name:			CHEMBL506247
#	Creating user name:	trannguyen
#	Creation time:		Wed Dec  7 14:36:25 2022


#	Modifying user name:	trannguyen
#	Modification time:	Wed Dec  7 14:36:25 2022

@<TRIPOS>MOLECULE
CHEMBL506247
 147 157 0 0 0
SMALL
GASTEIGER

@<TRIPOS>ATOM
      1 C           7.7819   34.1896    3.4253 C.3     1  UNL1        0.2060
      2 O           7.2986   34.1466    2.0813 O.3     1  UNL1       -0.3125
      3 C           8.3039   33.9519    1.1049 C.3     1  UNL1        0.3355
      4 C           9.2508   35.1512    1.0428 C.3     1  UNL1        0.2819
      5 C           9.5680   35.7736    2.4036 C.3     1  UNL1        0.2574
      6 C           9.0892   34.9943    3.6323 C.3     1  UNL1        0.2433
      7 O           9.0073   37.0995    2.5178 O.3     1  UNL1       -0.4413
      8 C           9.8161   38.0775    2.0416 C.2     1  UNL1        0.3415
      9 O          11.0238   38.0364    2.0031 O.2     1  UNL1       -0.2449
     10 C           9.0374   39.3013    1.7682 C.ar    1  UNL1        0.0819
     11 C           8.9779   40.3340    2.7106 C.ar    1  UNL1        0.0464
     12 C           8.5122   41.5780    2.3290 C.ar    1  UNL1        0.1708
     13 O           8.5670   42.6416    3.1886 O.3     1  UNL1       -0.5028
     14 C           8.0297   41.7765    1.0409 C.ar    1  UNL1        0.2028
     15 O           7.6656   43.0367    0.6664 O.3     1  UNL1       -0.5009
     16 C           7.9746   40.7130    0.1397 C.ar    1  UNL1        0.1854
     17 C           8.5299   39.4843    0.4822 C.ar    1  UNL1        0.0474
     18 H           8.9733   42.3280    4.0189 H       1  UNL1        0.2923
     19 H           7.9214   43.6031    1.4218 H       1  UNL1        0.2924
     20 O           7.4521   40.9594   -1.1395 O.3     1  UNL1       -0.4178
     21 C           8.2944   41.0245   -2.2297 C.2     1  UNL1        0.3460
     22 O           9.1942   41.8313   -2.4540 O.2     1  UNL1       -0.2445
     23 C           7.9639   39.9249   -3.1581 C.ar    1  UNL1        0.0823
     24 C           6.7666   39.9604   -3.8851 C.ar    1  UNL1        0.0464
     25 C           6.4042   38.8554   -4.6345 C.ar    1  UNL1        0.1708
     26 O           5.1975   38.8613   -5.2695 O.3     1  UNL1       -0.5028
     27 C           7.2340   37.7418   -4.6982 C.ar    1  UNL1        0.2019
     28 O           6.8238   36.6531   -5.4165 O.3     1  UNL1       -0.5009
     29 C           8.4492   37.7247   -4.0154 C.ar    1  UNL1        0.1708
     30 O           9.2427   36.6137   -4.1247 O.3     1  UNL1       -0.5028
     31 C           8.8169   38.8094   -3.2264 C.ar    1  UNL1        0.0464
     32 H           5.1009   37.9571   -5.6272 H       1  UNL1        0.2923
     33 H           7.5468   36.0035   -5.3023 H       1  UNL1        0.2924
     34 H          10.0716   36.7720   -3.6357 H       1  UNL1        0.2923
     35 O          10.1357   34.0664    4.0478 O.3     1  UNL1       -0.4426
     36 C          11.3422   34.6290    4.4331 C.2     1  UNL1        0.3415
     37 O          12.2052   35.0839    3.7459 O.2     1  UNL1       -0.2449
     38 C          11.4301   34.5227    5.8989 C.ar    1  UNL1        0.0819
     39 C          11.9394   35.5876    6.6387 C.ar    1  UNL1        0.0464
     40 C          12.0207   35.4730    8.0176 C.ar    1  UNL1        0.1708
     41 O          12.5584   36.3731    8.8826 O.3     1  UNL1       -0.5028
     42 C          11.5558   34.3583    8.6739 C.ar    1  UNL1        0.2028
     43 O          11.6493   34.3565   10.0340 O.3     1  UNL1       -0.5009
     44 C          11.0381   33.3112    7.9476 C.ar    1  UNL1        0.1854
     45 C          10.9910   33.3702    6.5509 C.ar    1  UNL1        0.0474
     46 H          12.5554   37.2359    8.4268 H       1  UNL1        0.2923
     47 H          12.0365   35.2295   10.2678 H       1  UNL1        0.2924
     48 O          10.7152   32.1768    8.6777 O.3     1  UNL1       -0.4178
     49 C           9.4873   31.6355    8.3841 C.2     1  UNL1        0.3460
     50 O           9.2610   30.6552    7.7112 O.2     1  UNL1       -0.2445
     51 C           8.5100   32.3722    9.2078 C.ar    1  UNL1        0.0823
     52 C           7.8312   33.4968    8.7002 C.ar    1  UNL1        0.0464
     53 C           6.9235   34.1543    9.5108 C.ar    1  UNL1        0.1708
     54 O           6.2229   35.2388    9.0725 O.3     1  UNL1       -0.5028
     55 C           6.7034   33.6975   10.8021 C.ar    1  UNL1        0.2019
     56 O           5.8008   34.2980   11.6312 O.3     1  UNL1       -0.5009
     57 C           7.3927   32.6014   11.3003 C.ar    1  UNL1        0.1708
     58 O           7.1237   32.1875   12.5696 O.3     1  UNL1       -0.5028
     59 C           8.3127   31.9326   10.5201 C.ar    1  UNL1        0.0464
     60 H           6.4758   35.4155    8.1481 H       1  UNL1        0.2923
     61 H           5.4227   35.0103   11.0870 H       1  UNL1        0.2924
     62 H           6.3910   32.7837   12.8414 H       1  UNL1        0.2923
     63 O          10.5344   34.7733    0.4748 O.3     1  UNL1       -0.4386
     64 C          10.9930   35.6911   -0.4219 C.2     1  UNL1        0.3416
     65 O          10.3026   36.4231   -1.0966 O.2     1  UNL1       -0.2449
     66 C          12.4634   35.8280   -0.2700 C.ar    1  UNL1        0.0819
     67 C          13.0544   36.9570   -0.8509 C.ar    1  UNL1        0.0464
     68 C          14.3982   37.2282   -0.6187 C.ar    1  UNL1        0.1708
     69 O          14.9805   38.3352   -1.1744 O.3     1  UNL1       -0.5028
     70 C          15.1640   36.3953    0.1987 C.ar    1  UNL1        0.2028
     71 O          16.4421   36.7982    0.4586 O.3     1  UNL1       -0.5009
     72 C          14.5761   35.2552    0.7593 C.ar    1  UNL1        0.1854
     73 C          13.2251   34.9630    0.5232 C.ar    1  UNL1        0.0474
     74 H          14.3378   38.7700   -1.7562 H       1  UNL1        0.2923
     75 H          17.0281   36.0140    0.4546 H       1  UNL1        0.2924
     76 O          15.1813   34.4172    1.7301 O.3     1  UNL1       -0.4178
     77 C          15.4838   34.7950    3.0213 C.2     1  UNL1        0.3460
     78 O          16.0181   35.8505    3.3729 O.2     1  UNL1       -0.2445
     79 C          15.0787   33.7331    3.9595 C.ar    1  UNL1        0.0823
     80 C          14.6462   32.4820    3.4962 C.ar    1  UNL1        0.0464
     81 C          14.2128   31.5375    4.4191 C.ar    1  UNL1        0.1708
     82 O          13.7379   30.3244    4.0018 O.3     1  UNL1       -0.5028
     83 C          14.2960   31.7798    5.7820 C.ar    1  UNL1        0.2019
     84 O          13.9538   30.8320    6.7045 O.3     1  UNL1       -0.5009
     85 C          14.7181   33.0221    6.2303 C.ar    1  UNL1        0.1708
     86 O          14.7644   33.2834    7.5668 O.3     1  UNL1       -0.5028
     87 C          15.0773   34.0144    5.3306 C.ar    1  UNL1        0.0464
     88 H          13.2017   30.4890    3.1968 H       1  UNL1        0.2923
     89 H          13.5413   30.0914    6.2206 H       1  UNL1        0.2924
     90 H          14.4672   32.4557    7.9958 H       1  UNL1        0.2923
     91 O           7.7557   33.6919   -0.2118 O.3     1  UNL1       -0.4175
     92 C           8.1483   32.5540   -0.8556 C.2     1  UNL1        0.3433
     93 O           7.8703   31.4151   -0.5426 O.2     1  UNL1       -0.2448
     94 C           8.8876   32.9008   -2.1108 C.ar    1  UNL1        0.0820
     95 C           8.1971   33.3678   -3.2392 C.ar    1  UNL1        0.0464
     96 C           8.8880   33.5643   -4.4278 C.ar    1  UNL1        0.1708
     97 O           8.2370   33.9786   -5.5615 O.3     1  UNL1       -0.5028
     98 C          10.2615   33.3082   -4.5143 C.ar    1  UNL1        0.2028
     99 O          10.8719   33.4588   -5.7311 O.3     1  UNL1       -0.5009
    100 C          10.9686   32.8703   -3.3916 C.ar    1  UNL1        0.1854
    101 C          10.2753   32.6467   -2.1904 C.ar    1  UNL1        0.0474
    102 H           7.3079   34.1611   -5.3327 H       1  UNL1        0.2923
    103 H          10.1451   33.7045   -6.3414 H       1  UNL1        0.2924
    104 O          12.3303   32.4770   -3.5430 O.3     1  UNL1       -0.4178
    105 C          13.3598   33.2799   -3.0563 C.2     1  UNL1        0.3460
    106 O          13.5690   34.4474   -3.3495 O.2     1  UNL1       -0.2445
    107 C          14.1306   32.5576   -1.9911 C.ar    1  UNL1        0.0823
    108 C          13.5082   31.7831   -0.9930 C.ar    1  UNL1        0.0464
    109 C          14.2899   31.2002    0.0124 C.ar    1  UNL1        0.1708
    110 O          13.7580   30.4011    0.9886 O.3     1  UNL1       -0.5028
    111 C          15.6660   31.3978    0.0463 C.ar    1  UNL1        0.2019
    112 O          16.4293   30.8705    1.0547 O.3     1  UNL1       -0.5009
    113 C          16.2851   32.1163   -0.9651 C.ar    1  UNL1        0.1708
    114 O          17.6423   32.2642   -0.9550 O.3     1  UNL1       -0.5028
    115 C          15.5341   32.6831   -1.9928 C.ar    1  UNL1        0.0464
    116 H          12.8871   30.0879    0.6878 H       1  UNL1        0.2923
    117 H          15.7842   30.4539    1.6625 H       1  UNL1        0.2924
    118 H          17.9471   31.7633   -0.1707 H       1  UNL1        0.2923
    119 C           6.6252   34.7543    4.2643 C.3     1  UNL1        0.2420
    120 O           6.5779   34.1562    5.5665 O.3     1  UNL1       -0.4426
    121 O           7.3976   32.0054    5.5249 O.2     1  UNL1       -0.2449
    122 C           6.4783   32.8064    5.6020 C.2     1  UNL1        0.3415
    123 C           5.0605   32.3964    5.6869 C.ar    1  UNL1        0.0819
    124 C           4.4387   31.8996    4.5375 C.ar    1  UNL1        0.0464
    125 C           3.1356   31.4279    4.6324 C.ar    1  UNL1        0.1708
    126 O           2.4825   30.9403    3.5298 O.3     1  UNL1       -0.5028
    127 C           2.4444   31.4498    5.8549 C.ar    1  UNL1        0.2028
    128 O           1.1767   30.9372    5.8840 O.3     1  UNL1       -0.5009
    129 C           3.0493   31.9876    6.9935 C.ar    1  UNL1        0.1854
    130 C           4.3565   32.4760    6.8949 C.ar    1  UNL1        0.0474
    131 H           3.0550   31.0545    2.7481 H       1  UNL1        0.2923
    132 H           1.0381   30.5817    4.9808 H       1  UNL1        0.2924
    133 O           2.3241   32.1633    8.2011 O.3     1  UNL1       -0.4178
    134 C           2.9673   31.7833    9.3719 C.2     1  UNL1        0.3460
    135 O           3.6286   32.5183   10.1046 O.2     1  UNL1       -0.2445
    136 C           2.7896   30.3360    9.7137 C.ar    1  UNL1        0.0823
    137 C           3.8599   29.4293    9.8048 C.ar    1  UNL1        0.0464
    138 C           3.6299   28.1453   10.3229 C.ar    1  UNL1        0.1708
    139 O           4.6467   27.2501   10.5360 O.3     1  UNL1       -0.5028
    140 C           2.3508   27.7445   10.7045 C.ar    1  UNL1        0.2019
    141 O           2.1306   26.5052   11.2547 O.3     1  UNL1       -0.5009
    142 C           1.2877   28.6241   10.5647 C.ar    1  UNL1        0.1708
    143 O           0.0357   28.2495   10.9562 O.3     1  UNL1       -0.5028
    144 C           1.4939   29.9085   10.0731 C.ar    1  UNL1        0.0464
    145 H           5.4932   27.7100   10.3982 H       1  UNL1        0.2923
    146 H           3.0191   26.0965   11.2937 H       1  UNL1        0.2924
    147 H           0.1598   27.3478   11.3118 H       1  UNL1        0.2923
@<TRIPOS>BOND
     1   121   122    2
     2   122   120    1
     3   122   123    1
     4   120   119    1
     5   119     1    1
     6     1     2    1
     7     1     6    1
     8     2     3    1
     9     3     4    1
    10     3    91    1
    11    91    92    1
    12    92    93    2
    13    92    94    1
    14    94    95   ar
    15    94   101   ar
    16    95    96   ar
    17    96    97    1
    18    96    98   ar
    19    97   102    1
    20    98    99    1
    21    98   100   ar
    22    99   103    1
    23   100   104    1
    24   100   101   ar
    25   104   105    1
    26   105   106    2
    27   105   107    1
    28   107   108   ar
    29   107   115   ar
    30   108   109   ar
    31   109   110    1
    32   109   111   ar
    33   110   116    1
    34   111   112    1
    35   111   113   ar
    36   112   117    1
    37   113   114    1
    38   113   115   ar
    39   114   118    1
    40     4    63    1
    41     4     5    1
    42    63    64    1
    43    64    65    2
    44    64    66    1
    45    66    67   ar
    46    66    73   ar
    47    67    68   ar
    48    68    69    1
    49    68    70   ar
    50    69    74    1
    51    70    71    1
    52    70    72   ar
    53    71    75    1
    54    72    76    1
    55    72    73   ar
    56    76    77    1
    57    77    78    2
    58    77    79    1
    59    79    80   ar
    60    79    87   ar
    61    80    81   ar
    62    81    82    1
    63    81    83   ar
    64    82    88    1
    65    83    84    1
    66    83    85   ar
    67    84    89    1
    68    85    86    1
    69    85    87   ar
    70    86    90    1
    71     5     6    1
    72     5     7    1
    73     7     8    1
    74     8     9    2
    75     8    10    1
    76    10    11   ar
    77    10    17   ar
    78    11    12   ar
    79    12    13    1
    80    12    14   ar
    81    13    18    1
    82    14    15    1
    83    14    16   ar
    84    15    19    1
    85    16    20    1
    86    16    17   ar
    87    20    21    1
    88    21    22    2
    89    21    23    1
    90    23    24   ar
    91    23    31   ar
    92    24    25   ar
    93    25    26    1
    94    25    27   ar
    95    26    32    1
    96    27    28    1
    97    27    29   ar
    98    28    33    1
    99    29    30    1
   100    29    31   ar
   101    30    34    1
   102     6    35    1
   103    35    36    1
   104    36    37    2
   105    36    38    1
   106    38    39   ar
   107    38    45   ar
   108    39    40   ar
   109    40    41    1
   110    40    42   ar
   111    41    46    1
   112    42    43    1
   113    42    44   ar
   114    43    47    1
   115    44    48    1
   116    44    45   ar
   117    48    49    1
   118    49    50    2
   119    49    51    1
   120    51    52   ar
   121    51    59   ar
   122    52    53   ar
   123    53    54    1
   124    53    55   ar
   125    54    60    1
   126    55    56    1
   127    55    57   ar
   128    56    61    1
   129    57    58    1
   130    57    59   ar
   131    58    62    1
   132   123   124   ar
   133   123   130   ar
   134   124   125   ar
   135   125   126    1
   136   125   127   ar
   137   126   131    1
   138   127   128    1
   139   127   129   ar
   140   128   132    1
   141   129   133    1
   142   129   130   ar
   143   133   134    1
   144   134   135    2
   145   134   136    1
   146   136   137   ar
   147   136   144   ar
   148   137   138   ar
   149   138   139    1
   150   138   140   ar
   151   139   145    1
   152   140   141    1
   153   140   142   ar
   154   141   146    1
   155   142   143    1
   156   142   144   ar
   157   143   147    1



#	Name:			CHEMBL509
#	Creating user name:	trannguyen
#	Creation time:		Wed Dec  7 14:36:25 2022


#	Modifying user name:	trannguyen
#	Modification time:	Wed Dec  7 14:36:25 2022

@<TRIPOS>MOLECULE
CHEMBL509
 21 22 0 0 0
SMALL
GASTEIGER

@<TRIPOS>ATOM
      1 N           3.4174   31.6360    8.8227 N.pl3   1  UNL1       -0.3111
      2 H           3.5126   32.3005    9.6017 H       1  UNL1        0.1523
      3 C           4.1302   31.7986    3.8789 C.3     1  UNL1        0.0320
      4 C           4.5460   32.1865    5.2732 C.ar    1  UNL1       -0.0100
      5 C           5.8298   32.7064    5.4631 C.ar    1  UNL1       -0.0025
      6 C           6.3453   32.8479    6.7477 C.ar    1  UNL1        0.0124
      7 C           5.5917   32.4657    7.8653 C.ar    1  UNL1        0.0718
      8 CL          6.4720   32.3782    9.3551 Cl      1  UNL1       -0.0809
      9 C           4.2461   32.0620    7.7323 C.ar    1  UNL1        0.0694
     10 C           3.7504   31.9157    6.4068 C.ar    1  UNL1        0.0679
     11 CL          2.1129   31.3627    6.1895 Cl      1  UNL1       -0.0813
     12 C           3.2009   30.3320    9.3457 C.ar    1  UNL1        0.0546
     13 C           4.2737   29.5006    9.7074 C.ar    1  UNL1        0.0148
     14 C           4.0551   28.1897   10.1448 C.ar    1  UNL1        0.0013
     15 C           2.7594   27.7030   10.2829 C.ar    1  UNL1        0.0003
     16 C           1.6790   28.5433   10.0306 C.ar    1  UNL1        0.0077
     17 C           1.8891   29.8559    9.5760 C.ar    1  UNL1        0.0888
     18 C           0.6640   30.6757    9.3627 C.2     1  UNL1        0.3392
     19 O          -0.2685   30.3149    8.6683 O.2     1  UNL1       -0.2450
     20 O           0.7041   31.8827    9.9694 O.3     1  UNL1       -0.4771
     21 H           1.5260   32.0218   10.4897 H       1  UNL1        0.2954
@<TRIPOS>BOND
     1     3     4    1
     2     4     5   ar
     3     4    10   ar
     4     5     6   ar
     5     6     7   ar
     6     7     8    1
     7     7     9   ar
     8     9     1    1
     9     9    10   ar
    10     1    12    1
    11     1     2    1
    12    12    13   ar
    13    12    17   ar
    14    13    14   ar
    15    14    15   ar
    16    15    16   ar
    17    16    17   ar
    18    17    18    1
    19    18    19    2
    20    18    20    1
    21    20    21    1
    22    10    11    1



#	Name:			CHEMBL510139
#	Creating user name:	trannguyen
#	Creation time:		Wed Dec  7 14:36:25 2022


#	Modifying user name:	trannguyen
#	Modification time:	Wed Dec  7 14:36:25 2022

@<TRIPOS>MOLECULE
CHEMBL510139
 20 21 0 0 0
SMALL
GASTEIGER

@<TRIPOS>ATOM
      1 C           5.7652   30.6688    9.4362 C.3     1  UNL1        0.0341
      2 C           4.3053   30.3301    9.3574 C.2     1  UNL1        0.0137
      3 C           3.3392   31.0822    8.7919 C.2     1  UNL1       -0.0139
      4 C           1.9592   30.5929    8.7845 C.2     1  UNL1        0.0669
      5 C           1.0757   31.1581    7.9376 C.2     1  UNL1        0.1746
      6 O           1.3214   32.1547    7.0262 O.2     1  UNL1       -0.4757
      7 C           2.7075   32.4561    6.7935 C.3     1  UNL1        0.1700
      8 C           3.2394   31.5394    5.6882 C.3     1  UNL1        0.0476
      9 C           3.5541   32.4061    8.0825 C.3     1  UNL1        0.0623
     10 C           3.2132   33.5720    9.0201 C.3     1  UNL1        0.0084
     11 C           1.5754   29.5325    9.7150 C.2     1  UNL1        0.1456
     12 O           0.2241   29.3920    9.9975 O.2     1  UNL1       -0.5051
     13 C           2.5032   28.7475   10.2969 C.2     1  UNL1        0.1475
     14 C           3.9394   29.0055    9.9715 C.2     1  UNL1        0.2005
     15 O           4.8184   28.1742   10.1747 O.2     1  UNL1       -0.2866
     16 H          -0.1982   30.2703    9.9177 H       1  UNL1        0.2922
     17 C           2.1533   27.6870   11.2762 C.2     1  UNL1        0.3442
     18 O           1.8186   27.9103   12.4288 O.2     1  UNL1       -0.2449
     19 O           2.2116   26.4202   10.8007 O.3     1  UNL1       -0.4770
     20 H           2.3640   26.3838    9.8316 H       1  UNL1        0.2954
@<TRIPOS>BOND
     1     1     2    1
     2     2     3    2
     3     2    14    1
     4     3     4    1
     5     3     9    1
     6     4     5    2
     7     4    11    1
     8     5     6    1
     9     6     7    1
    10     7     9    1
    11     7     8    1
    12     9    10    1
    13    11    12    1
    14    11    13    2
    15    12    16    1
    16    13    17    1
    17    13    14    1
    18    17    18    2
    19    17    19    1
    20    19    20    1
    21    14    15    2



#	Name:			CHEMBL511
#	Creating user name:	trannguyen
#	Creation time:		Wed Dec  7 14:36:25 2022


#	Modifying user name:	trannguyen
#	Modification time:	Wed Dec  7 14:36:25 2022

@<TRIPOS>MOLECULE
CHEMBL511
 21 22 0 0 0
SMALL
GASTEIGER

@<TRIPOS>ATOM
      1 N           2.4475   31.6808    9.1609 N.pl3   1  UNL1       -0.2877
      2 C           2.6000   30.3696    9.6130 C.ar    1  UNL1        0.1320
      3 C           3.8608   29.7517    9.6674 C.ar    1  UNL1        0.0343
      4 C           3.9920   28.4344   10.1114 C.ar    1  UNL1        0.0045
      5 C           2.8679   27.7249   10.4739 C.ar    1  UNL1        0.0208
      6 C           1.6523   28.3821   10.3982 C.ar    1  UNL1        0.1003
      7 N           1.5129   29.6675    9.9961 N.ar    1  UNL1       -0.2292
      8 C           1.7652   31.8669    7.8698 C.3     1  UNL1        0.1189
      9 C           4.3928   31.7545    4.4027 C.ar    1  UNL1        0.1387
     10 C           4.8131   32.3491    5.5917 C.ar    1  UNL1        0.0366
     11 C           3.9781   32.3534    6.7179 C.ar    1  UNL1        0.0005
     12 C           2.7000   31.7788    6.6732 C.ar    1  UNL1       -0.0022
     13 C           2.2954   31.1686    5.4763 C.ar    1  UNL1        0.0005
     14 C           3.1385   31.1462    4.3575 C.ar    1  UNL1        0.0366
     15 C           6.3402   32.4326    3.2412 C.3     1  UNL1        0.2525
     16 O           5.1388   31.6679    3.2580 O.3     1  UNL1       -0.4714
     17 C           2.3391   32.7827   10.1388 C.3     1  UNL1        0.1098
     18 C           0.9271   33.4299   10.1559 C.3     1  UNL1        0.0939
     19 N           0.8237   34.7749   10.7712 N.3     1  UNL1       -0.2688
     20 C           1.8743   35.6415   10.2216 C.3     1  UNL1        0.0897
     21 C          -0.4869   35.3909   10.5452 C.3     1  UNL1        0.0897
@<TRIPOS>BOND
     1    15    16    1
     2    16     9    1
     3     9    10   ar
     4     9    14   ar
     5    10    11   ar
     6    11    12   ar
     7    12     8    1
     8    12    13   ar
     9     8     1    1
    10     1    17    1
    11     1     2    1
    12    17    18    1
    13    18    19    1
    14    19    20    1
    15    19    21    1
    16     2     3   ar
    17     2     7   ar
    18     3     4   ar
    19     4     5   ar
    20     5     6   ar
    21     6     7   ar
    22    13    14   ar



#	Name:			CHEMBL513
#	Creating user name:	trannguyen
#	Creation time:		Wed Dec  7 14:36:25 2022


#	Modifying user name:	trannguyen
#	Modification time:	Wed Dec  7 14:36:25 2022

@<TRIPOS>MOLECULE
CHEMBL513
 13 12 0 0 0
SMALL
GASTEIGER

@<TRIPOS>ATOM
      1 N           2.1623   31.1035    8.3038 N.am    1  UNL1       -0.1286
      2 C           2.6638   31.8499    7.2308 C.2     1  UNL1        0.3254
      3 O           3.8389   32.1778    7.1406 O.2     1  UNL1       -0.2507
      4 N           1.7434   32.1970    6.2597 N.am    1  UNL1       -0.2861
      5 H           0.7627   32.0136    6.4170 H       1  UNL1        0.1511
      6 O           0.0375   31.5699    8.6956 O.2     1  UNL1       -0.1256
      7 N           0.8208   30.7008    8.3049 N.2     1  UNL1        0.0534
      8 C           3.0761   30.6301    9.3509 C.3     1  UNL1        0.1414
      9 C           2.6496   29.2863    9.9377 C.3     1  UNL1        0.1186
     10 CL          4.0368   28.1659   10.0054 Cl      1  UNL1       -0.1118
     11 C           2.0999   32.9202    5.0496 C.3     1  UNL1        0.1085
     12 C           2.1129   32.0514    3.7921 C.3     1  UNL1        0.1161
     13 CL          3.4399   30.8588    3.8302 Cl      1  UNL1       -0.1118
@<TRIPOS>BOND
     1     6     7    2
     2     7     1    1
     3     1     8    1
     4     1     2   am
     5     8     9    1
     6     9    10    1
     7     2     3    2
     8     2     4   am
     9     4    11    1
    10     4     5    1
    11    11    12    1
    12    12    13    1



#	Name:			CHEMBL514
#	Creating user name:	trannguyen
#	Creation time:		Wed Dec  7 14:36:25 2022


#	Modifying user name:	trannguyen
#	Modification time:	Wed Dec  7 14:36:25 2022

@<TRIPOS>MOLECULE
CHEMBL514
 16 16 0 0 0
SMALL
GASTEIGER

@<TRIPOS>ATOM
      1 N           2.0036   30.7276    8.9977 N.am    1  UNL1       -0.1286
      2 C           2.9959   31.4072    8.2800 C.2     1  UNL1        0.3253
      3 O           4.1173   31.6083    8.7296 O.2     1  UNL1       -0.2507
      4 N           2.6389   31.8028    7.0026 N.am    1  UNL1       -0.2890
      5 H           1.6591   31.8134    6.7644 H       1  UNL1        0.1510
      6 C           3.5554   32.4906    6.0985 C.3     1  UNL1        0.0731
      7 C           4.0659   31.5173    5.0211 C.3     1  UNL1        0.0196
      8 C           2.9971   31.1604    3.9869 C.3     1  UNL1        0.0017
      9 C           2.3656   32.4046    3.3715 C.3     1  UNL1        0.0001
     10 C           1.8369   33.3622    4.4354 C.3     1  UNL1        0.0017
     11 C           2.9104   33.7228    5.4622 C.3     1  UNL1        0.0196
     12 O          -0.0299   31.5246    8.6579 O.2     1  UNL1       -0.1256
     13 N           0.7246   30.5721    8.4474 N.2     1  UNL1        0.0534
     14 C           2.3463   30.0658   10.2606 C.3     1  UNL1        0.1414
     15 C           2.6057   28.5714   10.1216 C.3     1  UNL1        0.1186
     16 CL          4.3555   28.2640    9.9374 Cl      1  UNL1       -0.1118
@<TRIPOS>BOND
     1    12    13    2
     2    13     1    1
     3     1    14    1
     4     1     2   am
     5    14    15    1
     6    15    16    1
     7     2     3    2
     8     2     4   am
     9     4     6    1
    10     4     5    1
    11     6     7    1
    12     6    11    1
    13     7     8    1
    14     8     9    1
    15     9    10    1
    16    10    11    1



#	Name:			CHEMBL515914
#	Creating user name:	trannguyen
#	Creation time:		Wed Dec  7 14:36:25 2022


#	Modifying user name:	trannguyen
#	Modification time:	Wed Dec  7 14:36:25 2022

@<TRIPOS>MOLECULE
CHEMBL515914
 27 28 0 0 0
SMALL
GASTEIGER

@<TRIPOS>ATOM
      1 C           2.3223   32.1078    6.7516 C.3     1  UNL1        0.2045
      2 O           1.3444   31.4947    7.6119 O.3     1  UNL1       -0.3263
      3 C           1.7438   31.6984    8.9879 C.3     1  UNL1        0.2702
      4 C           3.0540   32.5126    8.9696 C.3     1  UNL1        0.2615
      5 C           3.6046   32.2138    7.5738 C.3     1  UNL1        0.2436
      6 N           1.8644   30.3799    9.6238 N.ar    1  UNL1       -0.1725
      7 N           3.0998   30.0444   10.1404 N.ar    1  UNL1       -0.1568
      8 C           3.2155   28.8911   10.7278 C.ar    1  UNL1        0.1808
      9 C           2.0888   27.9150   10.8317 C.ar    1  UNL1        0.2821
     10 O           2.2578   26.8480   11.4105 O.2     1  UNL1       -0.2653
     11 N           0.9369   28.3208   10.2480 N.ar    1  UNL1       -0.2719
     12 H           0.1327   27.7071   10.2855 H       1  UNL1        0.1735
     13 C           0.7521   29.5436    9.6474 C.ar    1  UNL1        0.3484
     14 O          -0.3502   29.8279    9.1948 O.2     1  UNL1       -0.2449
     15 C           2.4525   31.2650    5.4778 C.3     1  UNL1        0.2416
     16 O           1.9147   31.9112    4.3131 O.3     1  UNL1       -0.4457
     17 C           3.7931   33.0963    3.5449 C.3     1  UNL1        0.1212
     18 C           2.3843   33.1637    4.0602 C.2     1  UNL1        0.3176
     19 O           1.7596   34.1995    4.2232 O.2     1  UNL1       -0.2501
     20 O           2.7875   33.9322    9.0894 O.3     1  UNL1       -0.4436
     21 C           2.6383   34.4015   10.3535 C.2     1  UNL1        0.3177
     22 C           1.2978   35.0527   10.5076 C.3     1  UNL1        0.1212
     23 O           3.4970   34.3584   11.2328 O.2     1  UNL1       -0.2501
     24 O           4.4581   33.2649    7.0791 O.3     1  UNL1       -0.4456
     25 C           5.7935   33.1300    7.2943 C.2     1  UNL1        0.3176
     26 C           6.4129   32.2250    6.2669 C.3     1  UNL1        0.1212
     27 O           6.4261   33.6741    8.1888 O.2     1  UNL1       -0.2501
@<TRIPOS>BOND
     1    17    18    1
     2    18    19    2
     3    18    16    1
     4    16    15    1
     5    15     1    1
     6     1     2    1
     7     1     5    1
     8     2     3    1
     9     3     4    1
    10     3     6    1
    11     6     7   ar
    12     6    13   ar
    13     7     8   ar
    14     8     9   ar
    15     9    10    2
    16     9    11   ar
    17    11    12    1
    18    11    13   ar
    19    13    14    2
    20     4    20    1
    21     4     5    1
    22    20    21    1
    23    21    22    1
    24    21    23    2
    25     5    24    1
    26    24    25    1
    27    25    26    1
    28    25    27    2



#	Name:			CHEMBL516
#	Creating user name:	trannguyen
#	Creation time:		Wed Dec  7 14:36:25 2022


#	Modifying user name:	trannguyen
#	Modification time:	Wed Dec  7 14:36:25 2022

@<TRIPOS>MOLECULE
CHEMBL516
 22 25 0 0 0
SMALL
GASTEIGER

@<TRIPOS>ATOM
      1 C           2.4344   32.9943    3.7644 C.3     1  UNL1        0.0897
      2 N           3.4913   32.1551    4.3228 N.3     1  UNL1       -0.2709
      3 C           4.4094   32.9187    5.1841 C.3     1  UNL1        0.0765
      4 C           3.8249   33.3422    6.5439 C.3     1  UNL1        0.0394
      5 C           3.2397   32.1614    7.3101 C.2     1  UNL1       -0.0414
      6 C           3.5508   31.8461    8.5967 C.2     1  UNL1       -0.0078
      7 C           4.5500   32.6354    9.3621 C.ar    1  UNL1       -0.0006
      8 C           4.2520   33.9490    9.7609 C.ar    1  UNL1       -0.0000
      9 C           5.1767   34.6927   10.4928 C.ar    1  UNL1       -0.0000
     10 C           6.4007   34.1277   10.8405 C.ar    1  UNL1       -0.0000
     11 C           6.6959   32.8134   10.4703 C.ar    1  UNL1       -0.0000
     12 C           5.7697   32.0444    9.7489 C.ar    1  UNL1       -0.0000
     13 C           6.1412   30.6592    9.3994 C.2     1  UNL1       -0.0000
     14 C           5.3221   29.5937    9.3422 C.2     1  UNL1       -0.0000
     15 C           3.8715   29.5757    9.6142 C.ar    1  UNL1       -0.0000
     16 C           3.3310   28.4396   10.2363 C.ar    1  UNL1       -0.0000
     17 C           1.9666   28.3635   10.5270 C.ar    1  UNL1       -0.0000
     18 C           1.1225   29.4199   10.1958 C.ar    1  UNL1       -0.0000
     19 C           1.6396   30.5491    9.5620 C.ar    1  UNL1       -0.0000
     20 C           3.0062   30.6256    9.2458 C.ar    1  UNL1       -0.0006
     21 C           2.3070   31.3465    6.4216 C.3     1  UNL1        0.0394
     22 C           2.9519   31.0038    5.0655 C.3     1  UNL1        0.0765
@<TRIPOS>BOND
     1     1     2    1
     2     2     3    1
     3     2    22    1
     4     3     4    1
     5     4     5    1
     6     5     6    2
     7     5    21    1
     8     6     7    1
     9     6    20    1
    10     7     8   ar
    11     7    12   ar
    12     8     9   ar
    13     9    10   ar
    14    10    11   ar
    15    11    12   ar
    16    12    13    1
    17    13    14    2
    18    14    15    1
    19    15    16   ar
    20    15    20   ar
    21    16    17   ar
    22    17    18   ar
    23    18    19   ar
    24    19    20   ar
    25    21    22    1



#	Name:			CHEMBL521
#	Creating user name:	trannguyen
#	Creation time:		Wed Dec  7 14:36:25 2022


#	Modifying user name:	trannguyen
#	Modification time:	Wed Dec  7 14:36:25 2022

@<TRIPOS>MOLECULE
CHEMBL521
 16 16 0 0 0
SMALL
GASTEIGER

@<TRIPOS>ATOM
      1 C           3.0130   31.5798    7.5959 C.ar    1  UNL1       -0.0222
      2 C           3.8891   31.2159    8.6253 C.ar    1  UNL1       -0.0046
      3 C           3.4873   30.3229    9.6289 C.ar    1  UNL1       -0.0041
      4 C           2.2002   29.7653    9.6212 C.ar    1  UNL1       -0.0120
      5 C           1.3173   30.1486    8.6004 C.ar    1  UNL1       -0.0041
      6 C           1.7163   31.0505    7.6078 C.ar    1  UNL1       -0.0046
      7 C           1.7298   28.8045   10.7084 C.3     1  UNL1        0.1211
      8 C           0.2231   28.5349   10.6190 C.3     1  UNL1        0.0164
      9 C           2.4971   27.4829   10.7515 C.2     1  UNL1        0.3174
     10 O           3.3466   27.1589    9.9252 O.2     1  UNL1       -0.2499
     11 O           2.1174   26.6262   11.7255 O.3     1  UNL1       -0.4800
     12 H           1.4397   26.9846   12.3338 H       1  UNL1        0.2951
     13 C           3.4531   32.5123    6.4853 C.3     1  UNL1        0.0263
     14 C           2.2068   33.4150    4.4354 C.3     1  UNL1        0.0003
     15 C           2.8606   32.1964    5.0919 C.3     1  UNL1        0.0044
     16 C           3.9534   31.6589    4.1578 C.3     1  UNL1        0.0003
@<TRIPOS>BOND
     1    14    15    1
     2    15    16    1
     3    15    13    1
     4    13     1    1
     5     1     2   ar
     6     1     6   ar
     7     2     3   ar
     8     3     4   ar
     9     4     7    1
    10     4     5   ar
    11     7     8    1
    12     7     9    1
    13     9    10    2
    14     9    11    1
    15    11    12    1
    16     5     6   ar



#	Name:			CHEMBL52440
#	Creating user name:	trannguyen
#	Creation time:		Wed Dec  7 14:36:25 2022


#	Modifying user name:	trannguyen
#	Modification time:	Wed Dec  7 14:36:25 2022

@<TRIPOS>MOLECULE
CHEMBL52440
 20 23 0 0 0
SMALL
GASTEIGER

@<TRIPOS>ATOM
      1 C           4.1125   32.0868    4.8586 C.ar    1  UNL1        0.1384
      2 C           2.8199   31.6233    4.6295 C.ar    1  UNL1        0.0366
      3 C           1.9904   31.2874    5.6976 C.ar    1  UNL1       -0.0014
      4 C           2.4444   31.4046    7.0195 C.ar    1  UNL1       -0.0246
      5 C           3.7646   31.8305    7.2728 C.ar    1  UNL1       -0.0236
      6 C           4.5743   32.1954    6.1724 C.ar    1  UNL1        0.0323
      7 C           4.3115   31.9502    8.7199 C.3     1  UNL1        0.0213
      8 C           5.7739   31.4005    8.7692 C.3     1  UNL1        0.0041
      9 C           6.0848   30.6139   10.0411 C.3     1  UNL1        0.0003
     10 C           5.1516   29.4095   10.2002 C.3     1  UNL1        0.0001
     11 C           3.7170   29.6824    9.7305 C.3     1  UNL1        0.0017
     12 C           3.4267   31.1873    9.7416 C.3     1  UNL1        0.0188
     13 C           1.9627   31.5939    9.5025 C.3     1  UNL1        0.0621
     14 C           1.4912   31.0581    8.1401 C.3     1  UNL1        0.0420
     15 N           1.7878   33.0714    9.5082 N.3     1  UNL1       -0.2724
     16 C           0.6033   33.4788   10.2573 C.3     1  UNL1        0.0896
     17 C           2.9738   33.8215    9.9236 C.3     1  UNL1        0.0724
     18 C           4.2473   33.4517    9.1313 C.3     1  UNL1        0.0214
     19 C           6.0459   31.7145    3.5257 C.3     1  UNL1        0.2525
     20 O           4.8164   32.3985    3.7275 O.3     1  UNL1       -0.4714
@<TRIPOS>BOND
     1    19    20    1
     2    20     1    1
     3     1     2   ar
     4     1     6   ar
     5     2     3   ar
     6     3     4   ar
     7     4     5   ar
     8     4    14    1
     9     5     6   ar
    10     7     5    1
    11     7     8    1
    12     7    12    1
    13     7    18    1
    14     8     9    1
    15     9    10    1
    16    10    11    1
    17    11    12    1
    18    12    13    1
    19    13    14    1
    20    13    15    1
    21    15    17    1
    22    15    16    1
    23    17    18    1



#	Name:			CHEMBL526
#	Creating user name:	trannguyen
#	Creation time:		Wed Dec  7 14:36:25 2022


#	Modifying user name:	trannguyen
#	Modification time:	Wed Dec  7 14:36:25 2022

@<TRIPOS>MOLECULE
CHEMBL526
 14 14 0 0 0
SMALL
GASTEIGER

@<TRIPOS>ATOM
      1 C           2.8534   32.1661    6.0510 C.ar    1  UNL1        0.0109
      2 C           4.0781   32.8298    6.2322 C.ar    1  UNL1       -0.0013
      3 C           4.8298   32.6334    7.3882 C.ar    1  UNL1       -0.0004
      4 C           4.3798   31.7636    8.3798 C.ar    1  UNL1       -0.0013
      5 C           3.1593   31.0783    8.2420 C.ar    1  UNL1        0.0109
      6 C           2.4064   31.3148    7.0768 C.ar    1  UNL1        0.1256
      7 O           1.1865   30.7129    6.9115 O.3     1  UNL1       -0.5061
      8 H           0.6953   30.8477    7.7387 H       1  UNL1        0.2922
      9 C           1.9525   33.8293    4.3622 C.3     1  UNL1        0.0048
     10 C           2.0510   32.3571    4.7714 C.3     1  UNL1        0.0253
     11 C           2.6261   31.5130    3.6299 C.3     1  UNL1        0.0048
     12 C           2.7158   30.0908    9.3131 C.3     1  UNL1        0.0253
     13 C           3.9032   29.3323    9.9167 C.3     1  UNL1        0.0048
     14 C           1.8964   30.7758   10.4102 C.3     1  UNL1        0.0048
@<TRIPOS>BOND
     1     9    10    1
     2    10    11    1
     3    10     1    1
     4     1     2   ar
     5     1     6   ar
     6     2     3   ar
     7     3     4   ar
     8     4     5   ar
     9     5    12    1
    10     5     6   ar
    11    12    13    1
    12    12    14    1
    13     6     7    1
    14     7     8    1



#	Name:			CHEMBL529
#	Creating user name:	trannguyen
#	Creation time:		Wed Dec  7 14:36:25 2022


#	Modifying user name:	trannguyen
#	Modification time:	Wed Dec  7 14:36:25 2022

@<TRIPOS>MOLECULE
CHEMBL529
 57 59 0 0 0
SMALL
GASTEIGER

@<TRIPOS>ATOM
      1 C          11.7806   37.4146   10.3413 C.3     1  UNL1        0.1953
      2 O          10.9840   36.2578    9.8453 O.3     1  UNL1       -0.4497
      3 C           9.8348   35.9286   10.5417 C.2     1  UNL1        0.3188
      4 O           9.3962   36.5843   11.4471 O.2     1  UNL1       -0.2500
      5 C           9.2808   34.5190   10.1636 C.3     1  UNL1        0.1263
      6 C          10.4197   33.4937   10.2017 C.3     1  UNL1        0.0142
      7 C           8.2553   34.3401    8.9478 C.3     1  UNL1        0.1306
      8 C           8.7327   34.9773    7.5941 C.3     1  UNL1        0.0575
      9 C           8.5355   36.4935    7.6227 C.3     1  UNL1        0.0051
     10 C           8.4573   34.3080    6.1086 C.3     1  UNL1        0.1444
     11 C           9.4502   34.9577    4.9957 C.3     1  UNL1        0.1134
     12 C           8.8992   36.2707    4.4309 C.3     1  UNL1        0.0318
     13 O           9.5235   34.0595    3.8615 O.3     1  UNL1       -0.3844
     14 C          10.9157   35.0777    5.5106 C.3     1  UNL1        0.0307
     15 C          11.9696   35.8018    4.6440 C.3     1  UNL1        0.0184
     16 C          11.7431   37.3274    4.6209 C.3     1  UNL1        0.0015
     17 C          13.4172   35.4727    5.1296 C.3     1  UNL1        0.0722
     18 N          13.9008   36.3783    6.1827 N.3     1  UNL1       -0.2705
     19 C          15.1598   37.0162    5.7576 C.3     1  UNL1        0.0897
     20 C          13.9725   35.9148    7.6116 C.3     1  UNL1        0.0870
     21 C          13.0557   34.7595    7.9922 C.3     1  UNL1        0.0200
     22 C          13.7752   37.2035    8.5177 C.3     1  UNL1        0.1528
     23 O          12.9853   38.1683    7.8052 O.3     1  UNL1       -0.3806
     24 C          13.3232   37.1473   10.0206 C.3     1  UNL1        0.1506
     25 C          14.2277   38.1405   10.7932 C.3     1  UNL1        0.0356
     26 O          13.7003   35.8795   10.6012 O.3     1  UNL1       -0.3808
     27 H          10.0622   34.4869    3.1704 H       1  UNL1        0.2103
     28 H          13.0622   37.8867    6.8697 H       1  UNL1        0.2105
     29 H          12.8796   35.4211   10.8525 H       1  UNL1        0.2105
     30 C          10.2713   39.4934   10.8958 C.3     1  UNL1        0.0039
     31 C          11.1239   38.7415    9.8787 C.3     1  UNL1        0.0462
     32 O           7.0189   34.8088    9.5038 O.3     1  UNL1       -0.3323
     33 C           6.4494   34.1641   10.6289 C.3     1  UNL1        0.2375
     34 C           5.1601   34.7811   11.1732 C.3     1  UNL1        0.0910
     35 C           3.9279   34.5197   10.2840 C.3     1  UNL1        0.1246
     36 C           2.6500   35.0253   10.9749 C.3     1  UNL1        0.0324
     37 C           3.8447   32.9769   10.0898 C.3     1  UNL1        0.1623
     38 O           2.6937   32.5821    9.3356 O.3     1  UNL1       -0.3796
     39 C           5.1642   32.4508    9.4898 C.3     1  UNL1        0.1468
     40 C           5.1318   30.9250    9.3603 C.3     1  UNL1        0.0348
     41 O           6.2689   32.7676   10.3471 O.3     1  UNL1       -0.3304
     42 H           2.9354   32.5936    8.3937 H       1  UNL1        0.2105
     43 O           4.0650   35.1422    8.9888 O.3     1  UNL1       -0.3532
     44 C           3.0717   36.0985    8.6364 C.3     1  UNL1        0.1740
     45 O           7.0613   34.3306    5.6675 O.3     1  UNL1       -0.3287
     46 C           6.3346   33.0454    5.4754 C.3     1  UNL1        0.2643
     47 O           6.8358   32.4199    4.2651 O.3     1  UNL1       -0.3311
     48 C           6.1680   31.1944    3.9286 C.3     1  UNL1        0.1194
     49 C           6.8222   30.5259    2.7153 C.3     1  UNL1        0.0322
     50 C           4.7403   31.5196    3.5434 C.3     1  UNL1        0.0482
     51 C           3.9615   32.0524    4.7387 C.3     1  UNL1        0.0921
     52 C           4.7620   33.2101    5.4385 C.3     1  UNL1        0.1815
     53 O           4.2007   33.3328    6.7627 O.3     1  UNL1       -0.3783
     54 H           4.8527   32.9740    7.4034 H       1  UNL1        0.2106
     55 N           2.5817   32.4066    4.2560 N.3     1  UNL1       -0.2692
     56 C           1.5238   31.8362    5.1027 C.3     1  UNL1        0.0897
     57 C           2.3597   33.8441    4.1020 C.3     1  UNL1        0.0897
@<TRIPOS>BOND
     1    30    31    1
     2    31     1    1
     3     1     2    1
     4     1    24    1
     5     2     3    1
     6     3     4    2
     7     3     5    1
     8     5     6    1
     9     5     7    1
    10     7     8    1
    11     7    32    1
    12    32    33    1
    13    33    34    1
    14    33    41    1
    15    34    35    1
    16    35    37    1
    17    35    43    1
    18    35    36    1
    19    43    44    1
    20    37    39    1
    21    37    38    1
    22    38    42    1
    23    39    40    1
    24    39    41    1
    25     8     9    1
    26     8    10    1
    27    10    11    1
    28    10    45    1
    29    46    47    1
    30    46    52    1
    31    46    45    1
    32    47    48    1
    33    48    49    1
    34    48    50    1
    35    50    51    1
    36    51    55    1
    37    51    52    1
    38    55    56    1
    39    55    57    1
    40    52    53    1
    41    53    54    1
    42    11    12    1
    43    11    13    1
    44    11    14    1
    45    13    27    1
    46    14    15    1
    47    15    17    1
    48    15    16    1
    49    17    18    1
    50    18    19    1
    51    18    20    1
    52    20    21    1
    53    20    22    1
    54    22    24    1
    55    22    23    1
    56    23    28    1
    57    24    25    1
    58    24    26    1
    59    26    29    1



#	Name:			CHEMBL532
#	Creating user name:	trannguyen
#	Creation time:		Wed Dec  7 14:36:25 2022


#	Modifying user name:	trannguyen
#	Modification time:	Wed Dec  7 14:36:25 2022

@<TRIPOS>MOLECULE
CHEMBL532
 56 58 0 0 0
SMALL
GASTEIGER

@<TRIPOS>ATOM
      1 C           8.1586   37.7260    8.9479 C.3     1  UNL1        0.1953
      2 O           8.1981   36.3782    8.3471 O.3     1  UNL1       -0.4497
      3 C           8.8938   35.4096    9.0202 C.2     1  UNL1        0.3188
      4 O           9.8897   35.6463    9.5900 O.2     1  UNL1       -0.2500
      5 C           8.0919   34.1175    9.2454 C.3     1  UNL1        0.1263
      6 C           8.9053   33.2999   10.2935 C.3     1  UNL1        0.0142
      7 C           7.6058   33.1996    8.1038 C.3     1  UNL1        0.1306
      8 C           8.6305   32.3663    7.2435 C.3     1  UNL1        0.0575
      9 C           8.8177   30.8640    7.6575 C.3     1  UNL1        0.0051
     10 C           9.7987   33.0152    6.4049 C.3     1  UNL1        0.1444
     11 C          11.1485   32.8204    7.2123 C.3     1  UNL1        0.1137
     12 C          11.9573   31.7941    6.3773 C.3     1  UNL1        0.0318
     13 O          11.0109   32.1963    8.4781 O.3     1  UNL1       -0.3844
     14 C          11.6683   34.2221    7.4854 C.3     1  UNL1        0.0366
     15 C          12.4429   34.8793    8.6360 C.3     1  UNL1        0.0601
     16 C          13.8001   34.1899    8.7131 C.3     1  UNL1        0.0078
     17 C          12.4499   36.4520    8.2722 C.2     1  UNL1        0.1523
     18 O          12.7663   36.7974    7.1697 O.2     1  UNL1       -0.2960
     19 C          12.2176   37.6252    9.2390 C.3     1  UNL1        0.0869
     20 C          12.5757   37.2265   10.6366 C.3     1  UNL1        0.0104
     21 C          11.0475   38.6860    9.0737 C.3     1  UNL1        0.1451
     22 O          11.3249   39.5365    7.9301 O.3     1  UNL1       -0.3815
     23 C           9.5211   38.4192    9.6327 C.3     1  UNL1        0.1497
     24 C           9.0707   39.8081   10.1400 C.3     1  UNL1        0.0356
     25 O           9.6981   37.6998   10.8812 O.3     1  UNL1       -0.3808
     26 H          11.9041   32.0585    8.8352 H       1  UNL1        0.2103
     27 H          10.6414   40.2026    7.7450 H       1  UNL1        0.2105
     28 H           9.9551   36.7872   10.6197 H       1  UNL1        0.2105
     29 C           7.7746   39.1233    6.7013 C.3     1  UNL1        0.0039
     30 C           7.2724   38.6581    8.0350 C.3     1  UNL1        0.0462
     31 O           6.2825   33.4396    7.4899 O.3     1  UNL1       -0.3323
     32 C           5.8395   32.8629    6.2430 C.3     1  UNL1        0.2375
     33 C           4.5935   32.0431    6.4407 C.3     1  UNL1        0.0910
     34 C           3.3190   32.9280    6.5753 C.3     1  UNL1        0.1246
     35 C           2.1094   32.0626    6.9469 C.3     1  UNL1        0.0324
     36 C           3.0675   33.7559    5.3060 C.3     1  UNL1        0.1623
     37 O           2.6760   35.1053    5.6428 O.3     1  UNL1       -0.3796
     38 C           4.3364   33.8084    4.4494 C.3     1  UNL1        0.1468
     39 C           4.1945   32.6979    3.3969 C.3     1  UNL1        0.0348
     40 O           5.5836   33.8426    5.2038 O.3     1  UNL1       -0.3304
     41 H           3.0613   35.2327    6.5410 H       1  UNL1        0.2105
     42 O           3.4190   33.9911    7.5377 O.3     1  UNL1       -0.3532
     43 C           3.0958   33.6579    8.8410 C.3     1  UNL1        0.1740
     44 O           9.4880   34.3967    5.9322 O.3     1  UNL1       -0.3287
     45 C           8.4873   34.6630    4.8589 C.3     1  UNL1        0.2643
     46 O           8.7068   33.9244    3.6775 O.3     1  UNL1       -0.3311
     47 C           8.0212   34.3277    2.5011 C.3     1  UNL1        0.1194
     48 C           7.8900   33.1671    1.5185 C.3     1  UNL1        0.0322
     49 C           8.7608   35.5062    1.9163 C.3     1  UNL1        0.0482
     50 C           8.8213   36.6504    2.9480 C.3     1  UNL1        0.0921
     51 C           8.3796   36.1944    4.4358 C.3     1  UNL1        0.1815
     52 O           6.9504   36.5124    4.5024 O.3     1  UNL1       -0.3783
     53 H           6.5864   36.4553    3.5990 H       1  UNL1        0.2106
     54 N          10.0400   37.4102    2.6400 N.3     1  UNL1       -0.2692
     55 C          11.1191   36.4848    2.7488 C.3     1  UNL1        0.0897
     56 C          10.2934   38.5633    3.4990 C.3     1  UNL1        0.0897
@<TRIPOS>BOND
     1    29    30    1
     2    30     1    1
     3     1     2    1
     4     1    23    1
     5     2     3    1
     6     3     4    2
     7     3     5    1
     8     5     6    1
     9     5     7    1
    10     7     8    1
    11     7    31    1
    12    31    32    1
    13    32    33    1
    14    32    40    1
    15    33    34    1
    16    34    36    1
    17    34    42    1
    18    34    35    1
    19    42    43    1
    20    36    38    1
    21    36    37    1
    22    37    41    1
    23    38    39    1
    24    38    40    1
    25     8     9    1
    26     8    10    1
    27    10    11    1
    28    10    44    1
    29    45    46    1
    30    45    51    1
    31    45    44    1
    32    46    47    1
    33    47    48    1
    34    47    49    1
    35    49    50    1
    36    50    54    1
    37    50    51    1
    38    54    55    1
    39    54    56    1
    40    51    52    1
    41    52    53    1
    42    11    12    1
    43    11    13    1
    44    11    14    1
    45    13    26    1
    46    14    15    1
    47    15    17    1
    48    15    16    1
    49    17    18    2
    50    17    19    1
    51    19    20    1
    52    19    21    1
    53    21    23    1
    54    21    22    1
    55    22    27    1
    56    23    24    1
    57    23    25    1
    58    25    28    1



#	Name:			CHEMBL534
#	Creating user name:	trannguyen
#	Creation time:		Wed Dec  7 14:36:25 2022


#	Modifying user name:	trannguyen
#	Modification time:	Wed Dec  7 14:36:25 2022

@<TRIPOS>MOLECULE
CHEMBL534
 22 25 0 0 0
SMALL
GASTEIGER

@<TRIPOS>ATOM
      1 C           2.9234   32.8784    3.3630 C.3     1  UNL1        0.0897
      2 N           3.7197   31.8178    3.9767 N.3     1  UNL1       -0.2709
      3 C           4.8001   32.3520    4.8164 C.3     1  UNL1        0.0765
      4 C           4.3329   33.0041    6.1282 C.3     1  UNL1        0.0394
      5 C           3.4370   32.0868    6.9566 C.2     1  UNL1       -0.0414
      6 C           3.6054   31.8474    8.2893 C.2     1  UNL1       -0.0075
      7 C           2.6981   30.8674    8.9591 C.ar    1  UNL1       -0.0041
      8 C           1.3289   31.1404    9.1099 C.ar    1  UNL1       -0.0003
      9 C           0.4779   30.1988    9.6895 C.ar    1  UNL1       -0.0000
     10 C           0.9910   28.9910   10.1547 C.ar    1  UNL1       -0.0003
     11 C           2.3568   28.7267   10.0531 C.ar    1  UNL1       -0.0038
     12 C           3.2221   29.6594    9.4599 C.ar    1  UNL1       -0.0145
     13 C           4.6991   29.3618    9.3600 C.3     1  UNL1        0.0959
     14 C           5.5652   30.2898   10.1969 C.2     1  UNL1        0.1833
     15 O           6.3028   29.7945   11.0561 O.2     1  UNL1       -0.2905
     16 C           5.5235   31.7202    9.8985 C.ar    1  UNL1        0.0644
     17 S           6.6937   32.7419   10.6370 S.2     1  UNL1       -0.0835
     18 C           6.0537   34.1392    9.9013 C.ar    1  UNL1        0.0355
     19 C           4.9511   33.8519    9.1317 C.ar    1  UNL1        0.0075
     20 C           4.6748   32.4450    9.0691 C.ar    1  UNL1        0.0087
     21 C           2.3498   31.4600    6.0826 C.3     1  UNL1        0.0394
     22 C           2.8953   30.8878    4.7618 C.3     1  UNL1        0.0765
@<TRIPOS>BOND
     1     1     2    1
     2     2     3    1
     3     2    22    1
     4     3     4    1
     5     4     5    1
     6     5     6    2
     7     5    21    1
     8     6     7    1
     9     6    20    1
    10     7     8   ar
    11     7    12   ar
    12     8     9   ar
    13     9    10   ar
    14    10    11   ar
    15    11    12   ar
    16    12    13    1
    17    13    14    1
    18    14    15    2
    19    14    16    1
    20    16    17   ar
    21    16    20   ar
    22    17    18   ar
    23    18    19   ar
    24    19    20   ar
    25    21    22    1



#	Name:			CHEMBL54
#	Creating user name:	trannguyen
#	Creation time:		Wed Dec  7 14:36:25 2022


#	Modifying user name:	trannguyen
#	Modification time:	Wed Dec  7 14:36:25 2022

@<TRIPOS>MOLECULE
CHEMBL54
 27 29 0 0 0
SMALL
GASTEIGER

@<TRIPOS>ATOM
      1 N           4.9704   32.6472    4.5237 N.3     1  UNL1       -0.2725
      2 C           5.2995   33.9782    3.9951 C.3     1  UNL1        0.0748
      3 C           6.8007   34.2111    3.7793 C.3     1  UNL1        0.0485
      4 C           7.5224   33.0860    3.0016 C.3     1  UNL1        0.1096
      5 O           8.9134   33.1803    3.3814 O.3     1  UNL1       -0.3826
      6 C           7.0412   31.7000    3.4700 C.3     1  UNL1        0.0485
      7 C           5.5233   31.6267    3.6175 C.3     1  UNL1        0.0748
      8 H           9.2155   34.0737    3.1470 H       1  UNL1        0.2107
      9 C           7.4906   33.2084    1.4692 C.ar    1  UNL1        0.0019
     10 C           7.0643   34.3658    0.7995 C.ar    1  UNL1       -0.0012
     11 C           7.0435   34.4397   -0.5978 C.ar    1  UNL1        0.0111
     12 C           7.4616   33.3552   -1.3575 C.ar    1  UNL1        0.0577
     13 CL          7.4449   33.4579   -3.0737 Cl      1  UNL1       -0.0822
     14 C           7.8932   32.1933   -0.7299 C.ar    1  UNL1        0.0111
     15 C           7.8984   32.1192    0.6685 C.ar    1  UNL1       -0.0012
     16 C           5.3939   32.5117    5.9343 C.3     1  UNL1        0.0726
     17 C           4.3310   32.9706    6.9455 C.3     1  UNL1        0.0254
     18 C           3.5047   31.8224    7.5370 C.3     1  UNL1        0.0706
     19 O           4.1607   32.5059    9.7639 O.2     1  UNL1       -0.2913
     20 C           3.6759   31.6327    9.0391 C.2     1  UNL1        0.1731
     21 C           3.2469   30.3387    9.6594 C.ar    1  UNL1        0.0348
     22 C           1.9408   30.1359   10.1309 C.ar    1  UNL1        0.0051
     23 C           1.5838   28.9114   10.7059 C.ar    1  UNL1        0.0297
     24 C           2.5260   27.8952   10.8126 C.ar    1  UNL1        0.1401
     25 F           2.1766   26.7280   11.3681 F       1  UNL1       -0.2042
     26 C           3.8232   28.0761   10.3507 C.ar    1  UNL1        0.0297
     27 C           4.1838   29.2962    9.7720 C.ar    1  UNL1        0.0051
@<TRIPOS>BOND
     1    19    20    2
     2    20    18    1
     3    20    21    1
     4    18    17    1
     5    17    16    1
     6    16     1    1
     7     1     2    1
     8     1     7    1
     9     2     3    1
    10     3     4    1
    11     4     5    1
    12     4     9    1
    13     4     6    1
    14     5     8    1
    15     9    10   ar
    16     9    15   ar
    17    10    11   ar
    18    11    12   ar
    19    12    13    1
    20    12    14   ar
    21    14    15   ar
    22     6     7    1
    23    21    22   ar
    24    21    27   ar
    25    22    23   ar
    26    23    24   ar
    27    24    25    1
    28    24    26   ar
    29    26    27   ar



#	Name:			CHEMBL54440
#	Creating user name:	trannguyen
#	Creation time:		Wed Dec  7 14:36:24 2022


#	Modifying user name:	trannguyen
#	Modification time:	Wed Dec  7 14:36:24 2022

@<TRIPOS>MOLECULE
CHEMBL54440
 29 31 0 0 0
SMALL
GASTEIGER

@<TRIPOS>ATOM
      1 C           2.3284   31.3127    8.3455 C.3     1  UNL1        0.1730
      2 C           1.3112   30.2979    8.9289 C.3     1  UNL1        0.0486
      3 C           1.7095   29.6326   10.2502 C.3     1  UNL1        0.0294
      4 C           3.1713   29.3252   10.2915 C.2     1  UNL1       -0.0302
      5 C           4.0634   30.1954    9.7891 C.2     1  UNL1       -0.0236
      6 C           5.4571   29.8508    9.6957 C.2     1  UNL1       -0.0091
      7 C           6.3950   30.7441    9.3701 C.2     1  UNL1       -0.0268
      8 C           6.1116   32.2110    9.2069 C.3     1  UNL1        0.0224
      9 C           6.4908   32.8694   10.5400 C.3     1  UNL1        0.0047
     10 C           4.6690   32.4851    8.6706 C.3     1  UNL1        0.0117
     11 C           3.5691   31.5460    9.2891 C.3     1  UNL1        0.0624
     12 O           2.7773   30.9657    7.0022 O.3     1  UNL1       -0.4519
     13 C           2.1600   31.5612    5.9264 C.2     1  UNL1        0.3163
     14 O           1.0508   32.0462    5.9395 O.2     1  UNL1       -0.2501
     15 C           3.1343   31.6451    4.7417 C.3     1  UNL1        0.0991
     16 C           2.3841   31.8332    3.4283 C.3     1  UNL1        0.0116
     17 C           5.6060   32.2175    5.1596 C.3     1  UNL1        0.0006
     18 C           4.1887   32.7489    4.9674 C.3     1  UNL1        0.0111
     19 C           4.2409   33.9752    8.7881 C.3     1  UNL1        0.0045
     20 C           3.3264   34.3239    9.9737 C.3     1  UNL1        0.0437
     21 C           2.0329   35.1043    9.6709 C.3     1  UNL1        0.1713
     22 C           2.3707   36.5973    9.7124 C.3     1  UNL1        0.0734
     23 C           1.1490   37.4848    9.8175 C.3     1  UNL1        0.1252
     24 O           0.5434   37.6193    8.5370 O.3     1  UNL1       -0.3838
     25 C           0.1507   36.9649   10.8242 C.3     1  UNL1        0.1388
     26 C          -0.0863   35.4865   10.7105 C.2     1  UNL1        0.3194
     27 O          -1.1924   34.9892   10.8981 O.2     1  UNL1       -0.2500
     28 O           1.0320   34.7265   10.6268 O.3     1  UNL1       -0.4521
     29 H          -0.0796   38.3686    8.5843 H       1  UNL1        0.2104
@<TRIPOS>BOND
     1    17    18    1
     2    15    16    1
     3    15    13    1
     4    15    18    1
     5    13    14    2
     6    13    12    1
     7     1     2    1
     8     1    11    1
     9     1    12    1
    10     2     3    1
    11     3     4    1
    12     4     5    2
    13     5     6    1
    14     5    11    1
    15     6     7    2
    16     7     8    1
    17     8     9    1
    18     8    10    1
    19    10    19    1
    20    10    11    1
    21    19    20    1
    22    20    21    1
    23    21    22    1
    24    21    28    1
    25    22    23    1
    26    23    25    1
    27    23    24    1
    28    24    29    1
    29    25    26    1
    30    26    27    2
    31    26    28    1






#	Name:			CHEMBL553025
#	Creating user name:	trannguyen
#	Creation time:		Wed Dec  7 14:36:25 2022


#	Modifying user name:	trannguyen
#	Modification time:	Wed Dec  7 14:36:25 2022

@<TRIPOS>MOLECULE
CHEMBL553025
 59 67 0 0 0
SMALL
GASTEIGER

@<TRIPOS>ATOM
      1 C           7.0564   33.5036    8.6255 C.ar    1  UNL1        0.0262
      2 C           7.6732   34.4735    9.4644 C.ar    1  UNL1       -0.0034
      3 C           8.9440   35.0047    9.1675 C.ar    1  UNL1       -0.0066
      4 C           9.6213   34.6805    8.0156 C.ar    1  UNL1        0.0470
      5 C           9.0101   33.8180    7.1427 C.ar    1  UNL1        0.0508
      6 C           7.7969   33.1598    7.4463 C.ar    1  UNL1        0.1368
      7 N          10.8508   35.3611    7.8483 N.pl3   1  UNL1       -0.3043
      8 C          11.8567   34.6953    7.0142 C.3     1  UNL1        0.1122
      9 C          11.1935   35.7783    9.2494 C.3     1  UNL1        0.1163
     10 C          12.0936   37.0369    9.4385 C.3     1  UNL1        0.2316
     11 O          12.2746   37.2196   10.8753 O.3     1  UNL1       -0.3727
     12 C          11.5085   38.3361    8.8019 C.3     1  UNL1        0.2097
     13 C           9.9258   38.4645    8.8274 C.3     1  UNL1        0.0719
     14 C           9.4430   39.8732    9.2772 C.2     1  UNL1       -0.0250
     15 C           8.7877   40.1103   10.4244 C.2     1  UNL1       -0.0132
     16 C           8.5314   39.0572   11.4544 C.3     1  UNL1        0.0985
     17 N           9.3953   37.8990   11.2205 N.3     1  UNL1       -0.2695
     18 C           9.0410   36.7710   12.0793 C.3     1  UNL1        0.0728
     19 C           9.8037   35.6314   11.4349 C.3     1  UNL1        0.0244
     20 C           9.7990   35.9813    9.9337 C.3     1  UNL1        0.0547
     21 C           9.2514   37.4236    9.8177 C.3     1  UNL1        0.0703
     22 H          11.5797   37.8381   11.1779 H       1  UNL1        0.2111
     23 C           1.1977   34.5215   10.3029 C.2     1  UNL1       -0.0325
     24 C           2.4710   34.7534   10.7162 C.2     1  UNL1       -0.0322
     25 C           3.4381   33.7467   10.1873 C.3     1  UNL1        0.0386
     26 C           2.8490   32.3914   10.5903 C.3     1  UNL1        0.0770
     27 N           1.7932   32.0937    9.6387 N.3     1  UNL1       -0.2651
     28 C           0.8720   33.2482    9.4521 C.3     1  UNL1        0.0948
     29 C           2.3482   31.4305    8.4401 C.3     1  UNL1        0.1006
     30 C           3.3098   32.2288    7.5533 C.ar    1  UNL1        0.0075
     31 C           4.5991   32.8033    7.7794 C.ar    1  UNL1        0.0444
     32 N           4.8867   33.5094    6.6319 N.ar    1  UNL1       -0.3560
     33 H           5.6514   34.1599    6.5373 H       1  UNL1        0.1657
     34 C           4.0212   33.2234    5.6162 C.ar    1  UNL1        0.0561
     35 C           4.0716   33.6046    4.2724 C.ar    1  UNL1        0.0169
     36 C           3.0387   33.1738    3.4397 C.ar    1  UNL1        0.0015
     37 C           1.9771   32.4320    3.9476 C.ar    1  UNL1        0.0001
     38 C           1.9368   32.0813    5.3029 C.ar    1  UNL1        0.0012
     39 C           2.9980   32.4610    6.1574 C.ar    1  UNL1        0.0140
     40 C           5.6050   32.9076    9.0200 C.3     1  UNL1        0.1441
     41 C           4.9637   33.8022   10.1975 C.3     1  UNL1        0.0261
     42 C           0.4021   36.9208   10.1942 C.3     1  UNL1        0.0047
     43 C           0.0725   35.4845   10.5809 C.3     1  UNL1        0.0231
     44 C           5.7795   31.4058    9.5203 C.2     1  UNL1        0.3253
     45 O           5.5856   30.4030    8.8729 O.2     1  UNL1       -0.2494
     46 O           6.2470   31.3816   10.8142 O.3     1  UNL1       -0.4439
     47 C           6.4612   30.0824   11.3743 C.3     1  UNL1        0.2556
     48 O           7.3322   32.1628    6.6201 O.3     1  UNL1       -0.4717
     49 C           7.6955   32.1678    5.2277 C.3     1  UNL1        0.2525
     50 C          13.5521   36.7548    8.9946 C.2     1  UNL1        0.3466
     51 O          14.0962   37.1731    7.9764 O.2     1  UNL1       -0.2473
     52 O          14.1798   35.9392    9.8930 O.3     1  UNL1       -0.4427
     53 C          15.4589   35.4715    9.4669 C.3     1  UNL1        0.2557
     54 C           9.3522   38.3168    7.3687 C.3     1  UNL1        0.0089
     55 C           7.8281   38.1184    7.2436 C.3     1  UNL1        0.0005
     56 O          12.0397   39.5232    9.4762 O.3     1  UNL1       -0.4488
     57 C          12.8322   40.3419    8.7641 C.2     1  UNL1        0.3175
     58 C          12.6202   40.2190    7.2869 C.3     1  UNL1        0.1212
     59 O          13.7436   41.0423    9.2521 O.2     1  UNL1       -0.2501
@<TRIPOS>BOND
     1    42    43    1
     2    43    23    1
     3    23    24    2
     4    23    28    1
     5    24    25    1
     6    25    26    1
     7    25    41    1
     8    26    27    1
     9    27    28    1
    10    27    29    1
    11    29    30    1
    12    30    31   ar
    13    30    39   ar
    14    31    32   ar
    15    31    40    1
    16    32    33    1
    17    32    34   ar
    18    34    35   ar
    19    34    39   ar
    20    35    36   ar
    21    36    37   ar
    22    37    38   ar
    23    38    39   ar
    24    40    44    1
    25    40    41    1
    26    40     1    1
    27    44    45    2
    28    44    46    1
    29    46    47    1
    30     1     2   ar
    31     1     6   ar
    32     2     3   ar
    33     3     4   ar
    34     3    20    1
    35     4     5   ar
    36     4     7    1
    37     5     6   ar
    38     6    48    1
    39    48    49    1
    40     7     9    1
    41     7     8    1
    42     9    10    1
    43     9    20    1
    44    10    12    1
    45    10    11    1
    46    10    50    1
    47    11    22    1
    48    50    51    2
    49    50    52    1
    50    52    53    1
    51    12    13    1
    52    12    56    1
    53    56    57    1
    54    57    58    1
    55    57    59    2
    56    13    14    1
    57    13    21    1
    58    13    54    1
    59    54    55    1
    60    14    15    2
    61    15    16    1
    62    16    17    1
    63    17    18    1
    64    17    21    1
    65    18    19    1
    66    20    19    1
    67    20    21    1



#	Name:			CHEMBL558
#	Creating user name:	trannguyen
#	Creation time:		Wed Dec  7 14:36:25 2022


#	Modifying user name:	trannguyen
#	Modification time:	Wed Dec  7 14:36:25 2022

@<TRIPOS>MOLECULE
CHEMBL558
 15 15 0 0 0
SMALL
GASTEIGER

@<TRIPOS>ATOM
      1 C           6.3004   30.5584   10.4615 C.3     1  UNL1        0.0342
      2 C           5.3629   30.9705    9.3758 C.ar    1  UNL1        0.0118
      3 C           5.8870   31.6878    8.2882 C.ar    1  UNL1       -0.0013
      4 C           5.0571   32.2599    7.3401 C.ar    1  UNL1       -0.0004
      5 C           3.6807   32.1400    7.4835 C.ar    1  UNL1       -0.0013
      6 C           3.1209   31.4345    8.5573 C.ar    1  UNL1        0.0118
      7 C           1.6168   31.4443    8.7034 C.3     1  UNL1        0.0342
      8 C           3.9639   30.8021    9.4743 C.ar    1  UNL1        0.1305
      9 O           3.4607   30.1241   10.5618 O.3     1  UNL1       -0.4747
     10 C           3.1755   28.7391   10.2714 C.3     1  UNL1        0.2206
     11 C           2.0180   28.1975   11.1598 C.3     1  UNL1        0.0951
     12 C           0.6256   28.5145   10.6134 C.3     1  UNL1        0.0208
     13 N           2.1307   26.7395   11.3573 N.3     1  UNL1       -0.3192
     14 H           1.9636   26.2628   10.4700 H       1  UNL1        0.1189
     15 H           1.3781   26.4248   11.9726 H       1  UNL1        0.1189
@<TRIPOS>BOND
     1     1     2    1
     2     2     3   ar
     3     2     8   ar
     4     3     4   ar
     5     4     5   ar
     6     5     6   ar
     7     6     7    1
     8     6     8   ar
     9     8     9    1
    10     9    10    1
    11    10    11    1
    12    11    12    1
    13    11    13    1
    14    13    14    1
    15    13    15    1



#	Name:			CHEMBL562
#	Creating user name:	trannguyen
#	Creation time:		Wed Dec  7 14:36:25 2022


#	Modifying user name:	trannguyen
#	Modification time:	Wed Dec  7 14:36:25 2022

@<TRIPOS>MOLECULE
CHEMBL562
 24 26 0 0 0
SMALL
GASTEIGER

@<TRIPOS>ATOM
      1 C           6.5943   32.3417    7.6564 C.2     1  UNL1        0.1622
      2 C           7.9128   32.5688    7.5156 C.2     1  UNL1        0.0738
      3 C           8.8073   32.6260    8.6952 C.2     1  UNL1        0.1761
      4 O           9.9939   32.8996    8.5361 O.2     1  UNL1       -0.2912
      5 C           8.2391   32.2437   10.0409 C.3     1  UNL1        0.0736
      6 C           6.8036   32.7599   10.2027 C.3     1  UNL1        0.0586
      7 C           6.8188   34.2854   10.3745 C.3     1  UNL1        0.0050
      8 C           5.9280   32.2496    9.0277 C.3     1  UNL1        0.2368
      9 O           5.6483   30.8366    9.2775 O.3     1  UNL1       -0.4670
     10 C           4.2860   30.7194    9.4237 C.ar    1  UNL1        0.1586
     11 C           3.6237   29.5316    9.6933 C.ar    1  UNL1        0.1256
     12 CL          4.5224   28.0686    9.8771 Cl      1  UNL1       -0.0759
     13 C           2.2206   29.5487    9.8056 C.ar    1  UNL1        0.1552
     14 C           1.5182   30.7643    9.6644 C.ar    1  UNL1        0.0749
     15 C           2.1951   31.9566    9.3834 C.ar    1  UNL1        0.1476
     16 C           3.5748   31.8938    9.2796 C.ar    1  UNL1        0.1075
     17 C           4.5528   32.9209    9.0006 C.2     1  UNL1        0.2217
     18 O           4.2978   34.0889    8.7712 O.2     1  UNL1       -0.2870
     19 C           5.9859   32.8039    5.3657 C.3     1  UNL1        0.2522
     20 O           5.7128   32.1551    6.6029 O.2     1  UNL1       -0.4717
     21 O           1.6021   28.3637   10.1206 O.3     1  UNL1       -0.4704
     22 C           1.4334   28.0881   11.5071 C.3     1  UNL1        0.2525
     23 O           1.6000   33.1762    9.2677 O.3     1  UNL1       -0.4711
     24 C           1.0513   33.7301   10.4575 C.3     1  UNL1        0.2525
@<TRIPOS>BOND
     1    19    20    1
     2    20     1    1
     3     1     2    2
     4     2     3    1
     5     3     4    2
     6     3     5    1
     7     5     6    1
     8     6     8    1
     9     6     7    1
    10     8     1    1
    11     8     9    1
    12     8    17    1
    13     9    10    1
    14    10    11   ar
    15    10    16   ar
    16    11    12    1
    17    11    13   ar
    18    13    21    1
    19    13    14   ar
    20    21    22    1
    21    14    15   ar
    22    15    23    1
    23    15    16   ar
    24    23    24    1
    25    16    17    1
    26    17    18    2



#	Name:			CHEMBL563
#	Creating user name:	trannguyen
#	Creation time:		Wed Dec  7 14:36:25 2022


#	Modifying user name:	trannguyen
#	Modification time:	Wed Dec  7 14:36:25 2022

@<TRIPOS>MOLECULE
CHEMBL563
 19 20 0 0 0
SMALL
GASTEIGER

@<TRIPOS>ATOM
      1 C           3.3480   29.8804   10.1147 C.ar    1  UNL1       -0.0097
      2 C           4.4842   29.1707   10.5193 C.ar    1  UNL1       -0.0036
      3 C           5.7694   29.6007   10.1542 C.ar    1  UNL1        0.0019
      4 C           5.9781   30.7504    9.3678 C.ar    1  UNL1        0.0275
      5 C           4.8205   31.4382    8.9643 C.ar    1  UNL1        0.1398
      6 F           4.9068   32.5570    8.2276 F       1  UNL1       -0.2042
      7 C           3.5340   31.0145    9.3175 C.ar    1  UNL1        0.0259
      8 C           7.3490   31.1880    8.9901 C.ar    1  UNL1        0.0022
      9 C           8.1053   32.0435    9.8165 C.ar    1  UNL1        0.0001
     10 C           9.4013   32.4469    9.4715 C.ar    1  UNL1        0.0000
     11 C           9.9724   32.0159    8.2799 C.ar    1  UNL1        0.0000
     12 C           9.2513   31.1758    7.4399 C.ar    1  UNL1        0.0000
     13 C           7.9621   30.7623    7.7966 C.ar    1  UNL1        0.0001
     14 C           1.0205   29.4658    9.2697 C.3     1  UNL1        0.0164
     15 C           1.9419   29.4376   10.4904 C.3     1  UNL1        0.1212
     16 C           1.8921   28.0733   11.1788 C.2     1  UNL1        0.3174
     17 O           1.9172   27.8963   12.3854 O.2     1  UNL1       -0.2499
     18 O           1.8464   27.0326   10.3089 O.3     1  UNL1       -0.4800
     19 H           1.8007   27.3056    9.3716 H       1  UNL1        0.2951
@<TRIPOS>BOND
     1    14    15    1
     2    15    16    1
     3    15     1    1
     4    16    17    2
     5    16    18    1
     6    18    19    1
     7     1     2   ar
     8     1     7   ar
     9     2     3   ar
    10     3     4   ar
    11     4     8    1
    12     4     5   ar
    13     8     9   ar
    14     8    13   ar
    15     9    10   ar
    16    10    11   ar
    17    11    12   ar
    18    12    13   ar
    19     5     6    1
    20     5     7   ar



#	Name:			CHEMBL56337
#	Creating user name:	trannguyen
#	Creation time:		Wed Dec  7 14:36:25 2022


#	Modifying user name:	trannguyen
#	Modification time:	Wed Dec  7 14:36:25 2022

@<TRIPOS>MOLECULE
CHEMBL56337
 22 23 0 0 0
SMALL
GASTEIGER

@<TRIPOS>ATOM
      1 C           6.3330   30.5351   10.1457 C.2     1  UNL1        0.0068
      2 C           5.0446   30.3969    9.8124 C.2     1  UNL1        0.0846
      3 S           3.9759   31.5684    9.1457 S.3     1  UNL1       -0.0604
      4 C           2.5728   30.5251    9.2624 C.2     1  UNL1        0.1217
      5 S           1.0448   31.0580    8.8692 S.2     1  UNL1       -0.0272
      6 N           2.9552   29.2824    9.7272 N.am    1  UNL1       -0.2332
      7 C           4.3047   29.1092    9.9716 C.2     1  UNL1        0.2600
      8 O           4.8222   28.0258   10.1876 O.2     1  UNL1       -0.2690
      9 C           7.9667   31.8954    8.7798 C.3     1  UNL1        0.0310
     10 C           7.1614   31.7431   10.0489 C.2     1  UNL1       -0.0212
     11 C           7.2488   32.6104   11.0759 C.2     1  UNL1       -0.0042
     12 C           7.9314   33.9018   11.0698 C.ar    1  UNL1       -0.0003
     13 C           9.2842   33.9761   11.4026 C.ar    1  UNL1       -0.0000
     14 C           9.9200   35.2159   11.4522 C.ar    1  UNL1       -0.0000
     15 C           9.2038   36.3812   11.1757 C.ar    1  UNL1       -0.0000
     16 C           7.8469   36.3117   10.8617 C.ar    1  UNL1       -0.0000
     17 C           7.2085   35.0728   10.8130 C.ar    1  UNL1       -0.0000
     18 C           2.0596   28.1412    9.8490 C.3     1  UNL1        0.2088
     19 C           1.3456   28.1427   11.1944 C.2     1  UNL1        0.3347
     20 O           1.9172   28.0003   12.2586 O.2     1  UNL1       -0.2484
     21 O          -0.0058   28.2268   11.1106 O.3     1  UNL1       -0.4790
     22 H          -0.3710   28.1879   10.1950 H       1  UNL1        0.2951
@<TRIPOS>BOND
     1     9    10    1
     2    10     1    1
     3    10    11    2
     4     1     2    2
     5     2     3    1
     6     2     7    1
     7     3     4    1
     8     4     5    2
     9     4     6    1
    10     6    18    1
    11     6     7   am
    12    18    19    1
    13    19    20    2
    14    19    21    1
    15    21    22    1
    16     7     8    2
    17    11    12    1
    18    12    13   ar
    19    12    17   ar
    20    13    14   ar
    21    14    15   ar
    22    15    16   ar
    23    16    17   ar



#	Name:			CHEMBL564
#	Creating user name:	trannguyen
#	Creation time:		Wed Dec  7 14:36:25 2022


#	Modifying user name:	trannguyen
#	Modification time:	Wed Dec  7 14:36:25 2022

@<TRIPOS>MOLECULE
CHEMBL564
 20 22 0 0 0
SMALL
GASTEIGER

@<TRIPOS>ATOM
      1 N           2.4163   32.5412    7.8011 N.pl3   1  UNL1       -0.2861
      2 C           3.1841   33.2897    8.7377 C.ar    1  UNL1        0.0576
      3 C           2.5476   33.9858    9.7860 C.ar    1  UNL1        0.0153
      4 C           3.2908   34.6760   10.7585 C.ar    1  UNL1        0.0013
      5 C           4.6754   34.7089   10.6865 C.ar    1  UNL1        0.0006
      6 C           5.3192   34.0967    9.6172 C.ar    1  UNL1        0.0077
      7 C           4.5810   33.4072    8.6354 C.ar    1  UNL1        0.0431
      8 S           5.5215   32.6751    7.3117 S.3     1  UNL1       -0.0844
      9 C           4.2375   32.2675    6.1460 C.ar    1  UNL1        0.0431
     10 C           4.6532   31.9408    4.8419 C.ar    1  UNL1        0.0077
     11 C           3.7275   31.5552    3.8752 C.ar    1  UNL1        0.0006
     12 C           2.3820   31.5074    4.1964 C.ar    1  UNL1        0.0013
     13 C           1.9589   31.8426    5.4888 C.ar    1  UNL1        0.0153
     14 C           2.8801   32.2011    6.4961 C.ar    1  UNL1        0.0576
     15 C           1.5540   31.4856    8.4135 C.3     1  UNL1        0.0970
     16 C           2.3564   30.2739    8.9212 C.3     1  UNL1        0.0391
     17 C           2.1750   30.0329   10.4316 C.3     1  UNL1        0.0739
     18 C           2.3116   27.6575   10.9473 C.3     1  UNL1        0.0897
     19 N           3.0040   28.9482   10.9914 N.3     1  UNL1       -0.2703
     20 C           4.2765   28.8542   10.2673 C.3     1  UNL1        0.0897
@<TRIPOS>BOND
     1    18    19    1
     2    19    20    1
     3    19    17    1
     4    17    16    1
     5    16    15    1
     6    15     1    1
     7     1     2    1
     8     1    14    1
     9     2     3   ar
    10     2     7   ar
    11     3     4   ar
    12     4     5   ar
    13     5     6   ar
    14     6     7   ar
    15     7     8    1
    16     8     9    1
    17     9    10   ar
    18     9    14   ar
    19    10    11   ar
    20    11    12   ar
    21    12    13   ar
    22    13    14   ar



#	Name:			CHEMBL567597
#	Creating user name:	trannguyen
#	Creation time:		Wed Dec  7 14:36:25 2022


#	Modifying user name:	trannguyen
#	Modification time:	Wed Dec  7 14:36:25 2022

@<TRIPOS>MOLECULE
CHEMBL567597
 20 23 0 0 0
SMALL
GASTEIGER

@<TRIPOS>ATOM
      1 C           3.4006   33.8837    4.8824 C.3     1  UNL1        0.0001
      2 C           3.9112   32.4322    4.9920 C.3     1  UNL1        0.0026
      3 C           2.7091   31.4927    4.9687 C.3     1  UNL1        0.0002
      4 C           1.8619   31.6428    6.2269 C.3     1  UNL1        0.0032
      5 C           2.7184   31.3528    7.4543 C.3     1  UNL1        0.0447
      6 C           1.9495   31.2642    8.7953 C.3     1  UNL1        0.1017
      7 C           0.7092   30.3667    8.7160 C.3     1  UNL1        0.0117
      8 C           2.8598   30.6072    9.8281 C.2     1  UNL1        0.3184
      9 O           2.4928   30.2550   10.9480 O.2     1  UNL1       -0.2501
     10 O           4.1230   30.3815    9.3730 O.3     1  UNL1       -0.4217
     11 C           4.6446   31.6180    8.9128 C.3     1  UNL1        0.3202
     12 O           6.0214   31.6006    8.7701 O.3     1  UNL1       -0.2956
     13 C           6.4124   32.9575    8.5390 C.3     1  UNL1        0.2221
     14 C           7.3222   33.2365    9.7359 C.3     1  UNL1        0.0643
     15 C           7.1336   32.9415    7.2041 C.3     1  UNL1        0.0593
     16 C           6.1257   32.9735    6.0587 C.3     1  UNL1        0.0078
     17 C           4.8477   32.0901    6.2209 C.3     1  UNL1        0.0344
     18 C           4.0599   32.1602    7.5948 C.3     1  UNL1        0.1910
     19 O           4.0259   33.5615    7.8875 O.3     1  UNL1       -0.2171
     20 O           5.3603   33.9884    8.5238 O.3     1  UNL1       -0.1972
@<TRIPOS>BOND
     1     1     2    1
     2     2     3    1
     3     2    17    1
     4     3     4    1
     5     4     5    1
     6     5     6    1
     7     5    18    1
     8     6     7    1
     9     6     8    1
    10     8     9    2
    11     8    10    1
    12    10    11    1
    13    11    12    1
    14    11    18    1
    15    12    13    1
    16    13    14    1
    17    13    15    1
    18    13    20    1
    19    15    16    1
    20    16    17    1
    21    17    18    1
    22    18    19    1
    23    19    20    1



#	Name:			CHEMBL569
#	Creating user name:	trannguyen
#	Creation time:		Wed Dec  7 14:36:25 2022


#	Modifying user name:	trannguyen
#	Modification time:	Wed Dec  7 14:36:25 2022

@<TRIPOS>MOLECULE
CHEMBL569
 19 19 0 0 0
SMALL
GASTEIGER

@<TRIPOS>ATOM
      1 C           4.5388   30.5652    9.5847 C.2     1  UNL1        0.3412
      2 O           5.5413   29.8842    9.6086 O.2     1  UNL1       -0.2449
      3 C           3.1645   30.0118    9.7034 C.ar    1  UNL1        0.0757
      4 C           2.9699   28.9151   10.5483 C.ar    1  UNL1        0.0077
      5 C           1.6839   28.4033   10.7412 C.ar    1  UNL1        0.0143
      6 C           0.5925   28.9448   10.0580 C.ar    1  UNL1        0.0415
      7 N          -0.7048   28.5138   10.3537 N.pl3   1  UNL1       -0.3570
      8 C           0.7876   30.0714    9.2556 C.ar    1  UNL1        0.0143
      9 C           2.0679   30.5903    9.0565 C.ar    1  UNL1        0.0077
     10 H          -0.7501   27.5472   10.6606 H       1  UNL1        0.1424
     11 H          -1.3749   28.7129    9.6172 H       1  UNL1        0.1424
     12 O           4.4858   31.9176    9.4865 O.3     1  UNL1       -0.4439
     13 C           5.0174   32.4741    8.2731 C.3     1  UNL1        0.2260
     14 C           3.9074   33.0728    7.3933 C.3     1  UNL1        0.1202
     15 N           3.7096   32.3682    6.1142 N.3     1  UNL1       -0.2696
     16 C           1.8585   33.2911    4.5847 C.3     1  UNL1        0.0188
     17 C           2.3008   32.3190    5.6781 C.3     1  UNL1        0.0722
     18 C           4.6262   32.8946    5.0928 C.3     1  UNL1        0.0722
     19 C           5.1862   31.7884    4.2079 C.3     1  UNL1        0.0188
@<TRIPOS>BOND
     1    16    17    1
     2    17    15    1
     3    15    18    1
     4    15    14    1
     5    18    19    1
     6    14    13    1
     7    13    12    1
     8    12     1    1
     9     1     2    2
    10     1     3    1
    11     3     4   ar
    12     3     9   ar
    13     4     5   ar
    14     5     6   ar
    15     6     7    1
    16     6     8   ar
    17     7    10    1
    18     7    11    1
    19     8     9   ar



#	Name:			CHEMBL57
#	Creating user name:	trannguyen
#	Creation time:		Wed Dec  7 14:36:25 2022


#	Modifying user name:	trannguyen
#	Modification time:	Wed Dec  7 14:36:25 2022

@<TRIPOS>MOLECULE
CHEMBL57
 21 24 0 0 0
SMALL
GASTEIGER

@<TRIPOS>ATOM
      1 C           1.6924   28.0135   11.5523 C.3     1  UNL1        0.0325
      2 C           1.5323   29.0100   10.4297 C.ar    1  UNL1       -0.0041
      3 C           0.2422   29.2185    9.9427 C.ar    1  UNL1        0.0177
      4 C           0.0759   30.1266    8.9318 C.ar    1  UNL1        0.1001
      5 N           1.0963   30.8102    8.3889 N.ar    1  UNL1       -0.2276
      6 C           2.3850   30.6219    8.8164 C.ar    1  UNL1        0.1497
      7 C           2.6303   29.7282    9.8670 C.ar    1  UNL1        0.0789
      8 N           3.8819   29.4241   10.4052 N.am    1  UNL1       -0.2784
      9 C           5.1287   29.9295   10.2522 C.2     1  UNL1        0.2523
     10 O           6.0133   29.3687   10.9047 O.2     1  UNL1       -0.2697
     11 C           5.4731   31.0994    9.4374 C.ar    1  UNL1        0.0856
     12 C           6.7885   31.5877    9.6545 C.ar    1  UNL1        0.0089
     13 C           7.2997   32.6522    8.9312 C.ar    1  UNL1        0.0209
     14 C           6.4699   33.2199    8.0050 C.ar    1  UNL1        0.1003
     15 N           5.2134   32.7854    7.7862 N.ar    1  UNL1       -0.2287
     16 C           4.6870   31.7167    8.4763 C.ar    1  UNL1        0.1408
     17 N           3.3786   31.3320    8.0910 N.pl3   1  UNL1       -0.2584
     18 H           3.9236   28.6816   11.0908 H       1  UNL1        0.1552
     19 C           2.8472   32.0744    6.8868 C.3     1  UNL1        0.0801
     20 C           3.4040   31.8644    5.4947 C.3     1  UNL1        0.0219
     21 C           2.0240   31.3951    5.8133 C.3     1  UNL1        0.0219
@<TRIPOS>BOND
     1     1     2    1
     2     2     3   ar
     3     2     7   ar
     4     3     4   ar
     5     4     5   ar
     6     5     6   ar
     7     6     7   ar
     8     6    17    1
     9     7     8    1
    10     8     9   am
    11     8    18    1
    12     9    10    2
    13     9    11    1
    14    11    12   ar
    15    11    16   ar
    16    12    13   ar
    17    13    14   ar
    18    14    15   ar
    19    15    16   ar
    20    16    17    1
    21    17    19    1
    22    19    20    1
    23    19    21    1
    24    20    21    1



#	Name:			CHEMBL578
#	Creating user name:	trannguyen
#	Creation time:		Wed Dec  7 14:36:25 2022


#	Modifying user name:	trannguyen
#	Modification time:	Wed Dec  7 14:36:25 2022

@<TRIPOS>MOLECULE
CHEMBL578
 29 30 0 0 0
SMALL
GASTEIGER

@<TRIPOS>ATOM
      1 N           3.0848   30.9635   10.1272 N.3     1  ALA1       -0.2835
      2 H           3.1022   31.2954   11.0855 H       1  ALA1        0.1241
      3 CA          2.4841   31.7630    9.0390 C.3     1  ALA1        0.1321
      4 CB          1.7810   30.8836    7.9944 C.3     1  ALA1        0.0270
      5 C           1.4857   32.8451    9.6141 C.2     1  ALA1        0.2403
      6 O           0.3395   32.5167    9.9283 O.2     1  ALA1       -0.2734
      7 N           1.9187   34.1639    9.8200 N.am    2  PRO2       -0.2704
      8 CD          0.9254   35.1511   10.2913 C.3     2  PRO2        0.0940
      9 CG          1.6875   36.4603   10.4239 C.3     2  PRO2        0.0238
     10 CB          2.6526   36.3718    9.2534 C.3     2  PRO2        0.0331
     11 CA          3.0936   34.8841    9.2602 C.3     2  PRO2        0.1745
     12 C           4.4555   34.7756    9.9843 C.2     2  PRO2        0.3320
     13 O           5.5342   34.9291    9.4132 O.2     2  PRO2       -0.2485
     14 OXT         4.4317   34.3550   11.2646 O.3     2  PRO2       -0.4790
     15 HXT         3.5517   34.1991   11.6546 H       2  PRO2        0.2951
     16 C           3.8072   29.7149    9.8135 C.3     0  UNK0        0.1550
     17 C           3.3060   28.4778   10.5850 C.2     0  UNK0        0.3314
     18 O           3.7480   27.3605   10.5011 O.2     0  UNK0       -0.2486
     19 O           2.1835   28.8783   11.2578 O.3     0  UNK0       -0.4476
     20 C          -0.1177   28.8237   10.2115 C.3     0  UNK0        0.0513
     21 C           0.9039   28.2156   11.1555 C.3     0  UNK0        0.2086
     22 C           5.3528   29.7761    9.8799 C.3     0  UNK0        0.0318
     23 C           6.1597   31.0090    9.3866 C.3     0  UNK0        0.0283
     24 C           7.3989   31.6578    9.9987 C.ar    0  UNK0       -0.0221
     25 C           8.6044   31.5574    9.2784 C.ar    0  UNK0       -0.0043
     26 C           9.7475   32.2971    9.6201 C.ar    0  UNK0       -0.0003
     27 C           9.6991   33.2173   10.6585 C.ar    0  UNK0       -0.0000
     28 C           8.5430   33.3005   11.4160 C.ar    0  UNK0       -0.0003
     29 C           7.4404   32.4814   11.1192 C.ar    0  UNK0       -0.0043
@<TRIPOS>BOND
     1    20    21    1
     2    21    19    1
     3    19    17    1
     4    17    18    2
     5    16    22    1
     6    16     1    1
     7    16    17    1
     8    22    23    1
     9    23    24    1
    10    24    25   ar
    11    24    29   ar
    12    25    26   ar
    13    26    27   ar
    14    27    28   ar
    15    28    29   ar
    16     1     3    1
    17     1     2    1
    18     3     4    1
    19     3     5    1
    20     5     6    2
    21     5     7   am
    22     7     8    1
    23     7    11    1
    24     8     9    1
    25     9    10    1
    26    10    11    1
    27    11    12    1
    28    12    13    2
    29    12    14    1
    30    14    15    1



#	Name:			CHEMBL580
#	Creating user name:	trannguyen
#	Creation time:		Wed Dec  7 14:36:25 2022


#	Modifying user name:	trannguyen
#	Modification time:	Wed Dec  7 14:36:25 2022

@<TRIPOS>MOLECULE
CHEMBL580
 23 25 0 0 0
SMALL
GASTEIGER

@<TRIPOS>ATOM
      1 O           6.1513   34.6975   10.3355 O.2     1  UNL1       -0.2699
      2 C           5.3424   34.1487    9.5833 C.2     1  UNL1        0.2775
      3 N           5.7869   33.6063    8.4037 N.am    1  UNL1       -0.2802
      4 C           5.0316   32.8949    7.4604 C.ar    1  UNL1        0.0519
      5 C           5.5059   32.9182    6.1415 C.ar    1  UNL1        0.0156
      6 C           4.7976   32.2835    5.1191 C.ar    1  UNL1        0.0127
      7 C           3.6175   31.6091    5.4130 C.ar    1  UNL1        0.0578
      8 CL          2.7389   30.8353    4.1534 Cl      1  UNL1       -0.0822
      9 C           3.1539   31.5366    6.7242 C.ar    1  UNL1        0.0141
     10 C           3.8724   32.1566    7.7608 C.ar    1  UNL1        0.0317
     11 C           3.4497   31.8827    9.1696 C.2     1  UNL1        0.0810
     12 N           3.4242   32.7459   10.1274 N.2     1  UNL1       -0.2355
     13 C           3.8163   34.1191    9.8572 C.3     1  UNL1        0.2954
     14 O           3.4894   34.9888   10.9287 O.3     1  UNL1       -0.3573
     15 H           6.7434   33.8596    8.1870 H       1  UNL1        0.1550
     16 H           3.9960   34.6312   11.6790 H       1  UNL1        0.2129
     17 C           2.9945   30.5035    9.5191 C.ar    1  UNL1        0.0279
     18 C           3.9914   29.5633    9.8219 C.ar    1  UNL1        0.0023
     19 C           3.6434   28.2594   10.1755 C.ar    1  UNL1        0.0001
     20 C           2.3019   27.8850   10.2179 C.ar    1  UNL1        0.0009
     21 C           1.3068   28.8101    9.8946 C.ar    1  UNL1        0.0114
     22 C           1.6471   30.1193    9.5375 C.ar    1  UNL1        0.0591
     23 CL          0.3602   31.1801    9.0883 Cl      1  UNL1       -0.0822
@<TRIPOS>BOND
     1     1     2    2
     2     2     3   am
     3     2    13    1
     4     3     4    1
     5     3    15    1
     6     4     5   ar
     7     4    10   ar
     8     5     6   ar
     9     6     7   ar
    10     7     8    1
    11     7     9   ar
    12     9    10   ar
    13    10    11    1
    14    11    17    1
    15    11    12    2
    16    17    18   ar
    17    17    22   ar
    18    18    19   ar
    19    19    20   ar
    20    20    21   ar
    21    21    22   ar
    22    22    23    1
    23    12    13    1
    24    13    14    1
    25    14    16    1



#	Name:			CHEMBL584
#	Creating user name:	trannguyen
#	Creation time:		Wed Dec  7 14:36:25 2022


#	Modifying user name:	trannguyen
#	Modification time:	Wed Dec  7 14:36:25 2022

@<TRIPOS>MOLECULE
CHEMBL584
 44 47 0 0 0
SMALL
GASTEIGER

@<TRIPOS>ATOM
      1 C           3.0242   33.7171    9.3004 C.3     1  UNL1        0.1111
      2 C           3.5699   33.5748    6.8555 C.2     1  UNL1        0.2457
      3 O           3.1056   34.6566    6.6375 O.2     1  UNL1       -0.2702
      4 N           3.6162   33.0409    8.1358 N.am    1  UNL1       -0.2992
      5 H           3.8447   32.0737    8.2846 H       1  UNL1        0.1498
      6 C           1.9002   31.6507    5.3211 C.3     1  UNL1        0.0343
      7 C           3.3661   31.8074    5.0127 C.ar    1  UNL1        0.0162
      8 C           3.9751   31.0929    3.9637 C.ar    1  UNL1        0.1298
      9 O           3.3058   30.2428    3.1282 O.3     1  UNL1       -0.5058
     10 C           5.3390   31.1993    3.7009 C.ar    1  UNL1        0.0363
     11 C           6.1351   32.0330    4.4727 C.ar    1  UNL1        0.0032
     12 C           5.5573   32.7744    5.5014 C.ar    1  UNL1        0.0044
     13 C           4.1783   32.7019    5.7668 C.ar    1  UNL1        0.0523
     14 H           2.3520   30.4019    3.1788 H       1  UNL1        0.2922
     15 C           4.1300   34.2774   10.2149 C.3     1  UNL1        0.1451
     16 O           3.5517   35.4094   10.8886 O.3     1  UNL1       -0.3813
     17 H           2.9808   35.8651   10.2438 H       1  UNL1        0.2105
     18 C           5.5289   34.5967    9.5459 C.3     1  UNL1        0.1037
     19 N           6.6785   35.0269   10.4219 N.3     1  UNL1       -0.2644
     20 C           7.1819   33.8768   11.2129 C.3     1  UNL1        0.0725
     21 C           7.7868   32.6918   10.4110 C.3     1  UNL1        0.0161
     22 C           6.7485   31.5851   10.1233 C.3     1  UNL1        0.0014
     23 C           7.1252   30.5661    9.0687 C.3     1  UNL1        0.0000
     24 C           7.6321   31.2708    7.8233 C.3     1  UNL1        0.0000
     25 C           8.8946   32.0470    8.1637 C.3     1  UNL1        0.0001
     26 C           8.6646   33.1482    9.2044 C.3     1  UNL1        0.0032
     27 C           8.2597   34.4913    8.5382 C.3     1  UNL1        0.0254
     28 C           7.8918   35.4947    9.6359 C.3     1  UNL1        0.1348
     29 C           7.9762   37.0270    9.2620 C.2     1  UNL1        0.2369
     30 O           7.7699   37.4540    8.1443 O.2     1  UNL1       -0.2737
     31 N           8.4898   37.8027   10.3157 N.am    1  UNL1       -0.3064
     32 H           8.5335   37.3397   11.2109 H       1  UNL1        0.1493
     33 C           8.8631   39.2481   10.3248 C.3     1  UNL1        0.0569
     34 C           8.6781   39.8688   11.7163 C.3     1  UNL1        0.0196
     35 C          10.3650   39.3596    9.9603 C.3     1  UNL1        0.0196
     36 C           8.0997   40.0892    9.2856 C.3     1  UNL1        0.0196
     37 C           2.0002   32.8970   10.0788 C.3     1  UNL1        0.0842
     38 S           1.2234   31.5810    9.0685 S.3     1  UNL1       -0.1118
     39 C           2.0222   30.1442    9.7121 C.ar    1  UNL1        0.0253
     40 C           3.4119   30.0161    9.6323 C.ar    1  UNL1        0.0061
     41 C           4.0189   28.8235   10.0273 C.ar    1  UNL1        0.0005
     42 C           3.2404   27.7727   10.5155 C.ar    1  UNL1        0.0000
     43 C           1.8599   27.9095   10.6127 C.ar    1  UNL1        0.0005
     44 C           1.2564   29.0878   10.2027 C.ar    1  UNL1        0.0061
@<TRIPOS>BOND
     1     6     7    1
     2     7     8   ar
     3     7    13   ar
     4     8     9    1
     5     8    10   ar
     6     9    14    1
     7    10    11   ar
     8    11    12   ar
     9    12    13   ar
    10    13     2    1
    11     2     3    2
    12     2     4   am
    13     4     1    1
    14     4     5    1
    15     1    37    1
    16    37    38    1
    17    38    39    1
    18    39    40   ar
    19    39    44   ar
    20    40    41   ar
    21    41    42   ar
    22    42    43   ar
    23    43    44   ar
    24    15    16    1
    25    15    18    1
    26    15     1    1
    27    16    17    1
    28    18    19    1
    29    19    20    1
    30    19    28    1
    31    20    21    1
    32    21    22    1
    33    21    26    1
    34    22    23    1
    35    23    24    1
    36    24    25    1
    37    25    26    1
    38    26    27    1
    39    27    28    1
    40    28    29    1
    41    29    30    2
    42    29    31   am
    43    31    33    1
    44    31    32    1
    45    33    34    1
    46    33    35    1
    47    33    36    1



#	Name:			CHEMBL593686
#	Creating user name:	trannguyen
#	Creation time:		Wed Dec  7 14:36:25 2022


#	Modifying user name:	trannguyen
#	Modification time:	Wed Dec  7 14:36:25 2022

@<TRIPOS>MOLECULE
CHEMBL593686
 41 46 0 0 0
SMALL
GASTEIGER

@<TRIPOS>ATOM
      1 C           7.8281   32.7553    4.9621 C.ar    1  UNL1        0.0194
      2 C           8.8794   33.6874    5.0230 C.ar    1  UNL1        0.0590
      3 N           9.3864   34.2827    3.9018 N.ar    1  UNL1       -0.2496
      4 C           8.7627   34.1350    2.7319 C.ar    1  UNL1        0.0820
      5 C           9.1938   34.8451    1.5948 C.ar    1  UNL1        0.0278
      6 C           8.5370   34.7395    0.3529 C.ar    1  UNL1        0.0584
      7 C           7.4980   33.8121    0.3158 C.ar    1  UNL1        0.1461
      8 F           7.0338   33.2648   -0.8090 F       1  UNL1       -0.2036
      9 C           6.9638   33.2264    1.4391 C.ar    1  UNL1        0.0321
     10 C           7.6464   33.2890    2.6342 C.ar    1  UNL1        0.0259
     11 C           7.2569   32.4878    3.7197 C.ar    1  UNL1        0.0321
     12 C           9.4802   34.1404    6.3369 C.3     1  UNL1        0.0403
     13 C          10.6755   33.3848    6.8851 C.3     1  UNL1        0.0063
     14 C          10.8504   34.7804    6.3725 C.3     1  UNL1        0.0063
     15 C           6.2086   32.7803    6.8708 C.2     1  UNL1        0.0168
     16 C           7.2056   32.2151    6.1724 C.2     1  UNL1        0.0006
     17 O           5.0236   34.5091   10.7759 O.2     1  UNL1       -0.2500
     18 C           4.8082   33.8632    9.6934 C.2     1  UNL1        0.3197
     19 C           3.5214   34.0508    8.9690 C.3     1  UNL1        0.1388
     20 C           3.2357   33.0515    7.8641 C.3     1  UNL1        0.1256
     21 O           1.8655   32.6472    7.8821 O.3     1  UNL1       -0.3837
     22 C           4.0857   31.8034    7.9868 C.3     1  UNL1        0.0781
     23 C           5.5583   32.1812    8.0892 C.3     1  UNL1        0.1933
     24 O           5.7695   33.0919    9.1971 O.3     1  UNL1       -0.4475
     25 H           1.3578   33.2834    7.3482 H       1  UNL1        0.2104
     26 S           9.0716   35.8274   -0.9844 S.3     1  UNL1       -0.0846
     27 C           8.9227   35.0362   -2.5856 C.ar    1  UNL1        0.0297
     28 C           9.6682   33.8945   -2.9037 C.ar    1  UNL1        0.0088
     29 C           9.4052   33.1789   -4.0894 C.ar    1  UNL1        0.0301
     30 C           8.3248   33.5322   -4.8906 C.ar    1  UNL1        0.1402
     31 F           8.0215   32.8226   -5.9838 F       1  UNL1       -0.2042
     32 C           7.6307   34.6867   -4.6281 C.ar    1  UNL1        0.0301
     33 C           8.0840   35.4936   -3.5920 C.ar    1  UNL1        0.0088
     34 S           6.0960   31.0930    3.5083 S.3     1  UNL1       -0.0868
     35 C           4.4787   31.8279    3.8320 C.ar    1  UNL1        0.0296
     36 C           4.2384   33.2056    3.7343 C.ar    1  UNL1        0.0088
     37 C           2.9687   33.7378    3.9806 C.ar    1  UNL1        0.0301
     38 C           1.9230   32.8949    4.3233 C.ar    1  UNL1        0.1402
     39 F           0.7140   33.4126    4.5781 F       1  UNL1       -0.2042
     40 C           2.1216   31.5239    4.4113 C.ar    1  UNL1        0.0301
     41 C           3.3970   30.9902    4.1668 C.ar    1  UNL1        0.0088
@<TRIPOS>BOND
     1    17    18    2
     2    18    19    1
     3    18    24    1
     4    19    20    1
     5    20    21    1
     6    20    22    1
     7    21    25    1
     8    22    23    1
     9    23    24    1
    10    23    15    1
    11    15    16    2
    12    16     1    1
    13     1     2   ar
    14     1    11   ar
    15     2    12    1
    16     2     3   ar
    17    12    13    1
    18    12    14    1
    19    13    14    1
    20     3     4   ar
    21     4     5   ar
    22     4    10   ar
    23     5     6   ar
    24     6    26    1
    25     6     7   ar
    26    26    27    1
    27    27    28   ar
    28    27    33   ar
    29    28    29   ar
    30    29    30   ar
    31    30    31    1
    32    30    32   ar
    33    32    33   ar
    34     7     8    1
    35     7     9   ar
    36     9    10   ar
    37    10    11   ar
    38    11    34    1
    39    34    35    1
    40    35    36   ar
    41    35    41   ar
    42    36    37   ar
    43    37    38   ar
    44    38    39    1
    45    38    40   ar
    46    40    41   ar



#	Name:			CHEMBL595754
#	Creating user name:	trannguyen
#	Creation time:		Wed Dec  7 14:36:25 2022


#	Modifying user name:	trannguyen
#	Modification time:	Wed Dec  7 14:36:25 2022

@<TRIPOS>MOLECULE
CHEMBL595754
 35 39 0 0 0
SMALL
GASTEIGER

@<TRIPOS>ATOM
      1 C           4.0107   31.3381    7.8323 C.ar    1  UNL1        0.0321
      2 C           3.8580   31.9856    6.5722 C.ar    1  UNL1        0.0194
      3 C           2.5343   32.1668    6.0896 C.ar    1  UNL1        0.0590
      4 N           1.4632   31.6662    6.7830 N.ar    1  UNL1       -0.2496
      5 C           1.6275   31.0067    7.9405 C.ar    1  UNL1        0.0837
      6 C           0.5166   30.4431    8.5614 C.ar    1  UNL1        0.0510
      7 C           0.6314   29.7238    9.7496 C.ar    1  UNL1        0.1689
      8 F          -0.4500   29.1445   10.2853 F       1  UNL1       -0.2017
      9 C           1.8542   29.5979   10.3704 C.ar    1  UNL1        0.1675
     10 F           1.9911   28.9195   11.5165 F       1  UNL1       -0.2018
     11 C           2.9675   30.1640    9.7867 C.ar    1  UNL1        0.0340
     12 C           2.8853   30.8425    8.5403 C.ar    1  UNL1        0.0260
     13 C           2.1250   32.9753    4.8391 C.3     1  UNL1        0.0403
     14 C           3.0530   33.5654    3.7952 C.3     1  UNL1        0.0063
     15 C           2.2578   32.3540    3.4592 C.3     1  UNL1        0.0063
     16 C           5.0039   32.4250    5.7365 C.2     1  UNL1        0.0006
     17 C           5.7500   31.7222    4.8788 C.2     1  UNL1        0.0168
     18 C           6.8282   32.1634    3.9710 C.3     1  UNL1        0.1933
     19 C           6.8560   33.6858    3.8402 C.3     1  UNL1        0.0781
     20 C           8.0145   34.0281    2.9397 C.3     1  UNL1        0.1256
     21 O           9.2225   33.7121    3.6230 O.3     1  UNL1       -0.3837
     22 C           7.9229   33.2718    1.6257 C.3     1  UNL1        0.1388
     23 C           7.4415   31.8423    1.7002 C.2     1  UNL1        0.3197
     24 O           7.6204   31.0693    0.8026 O.2     1  UNL1       -0.2500
     25 O           6.6331   31.5147    2.7375 O.3     1  UNL1       -0.4475
     26 H           9.9578   34.1277    3.1379 H       1  UNL1        0.2104
     27 S           5.6268   30.9476    8.5742 S.3     1  UNL1       -0.0867
     28 C           7.5769   33.4293   10.9938 C.ar    1  UNL1        0.1392
     29 C           6.8830   34.6376   10.9688 C.ar    1  UNL1        0.0369
     30 C           5.7327   34.7569   10.2024 C.ar    1  UNL1        0.0036
     31 C           5.2863   33.6559    9.4723 C.ar    1  UNL1        0.0067
     32 C           5.9749   32.4383    9.4883 C.ar    1  UNL1        0.0325
     33 C           7.1256   32.3528   10.2427 C.ar    1  UNL1        0.0434
     34 C           9.6687   34.3933   11.4196 C.3     1  UNL1        0.2525
     35 O           8.7191   33.3768   11.7408 O.3     1  UNL1       -0.4714
@<TRIPOS>BOND
     1    34    35    1
     2    35    28    1
     3    28    29   ar
     4    28    33   ar
     5    29    30   ar
     6    30    31   ar
     7    31    32   ar
     8    32    27    1
     9    32    33   ar
    10    27     1    1
    11     1     2   ar
    12     1    12   ar
    13     2    16    1
    14     2     3   ar
    15    16    17    2
    16    18    19    1
    17    18    25    1
    18    18    17    1
    19    19    20    1
    20    20    22    1
    21    20    21    1
    22    21    26    1
    23    22    23    1
    24    23    24    2
    25    23    25    1
    26     3    13    1
    27     3     4   ar
    28    13    14    1
    29    13    15    1
    30    14    15    1
    31     4     5   ar
    32     5     6   ar
    33     5    12   ar
    34     6     7   ar
    35     7     8    1
    36     7     9   ar
    37     9    10    1
    38     9    11   ar
    39    11    12   ar



#	Name:			CHEMBL595988
#	Creating user name:	trannguyen
#	Creation time:		Wed Dec  7 14:36:25 2022


#	Modifying user name:	trannguyen
#	Modification time:	Wed Dec  7 14:36:25 2022

@<TRIPOS>MOLECULE
CHEMBL595988
 32 36 0 0 0
SMALL
GASTEIGER

@<TRIPOS>ATOM
      1 C           5.3827   33.0246    7.7099 C.ar    1  UNL1        0.0194
      2 C           6.2880   33.0637    6.6365 C.ar    1  UNL1        0.0590
      3 N           5.9542   32.5784    5.4149 N.ar    1  UNL1       -0.2496
      4 C           4.7455   32.0549    5.1985 C.ar    1  UNL1        0.0814
      5 C           4.5028   31.5484    3.9290 C.ar    1  UNL1        0.0191
      6 C           3.2770   30.9873    3.5792 C.ar    1  UNL1        0.0015
      7 C           2.2736   30.9067    4.5313 C.ar    1  UNL1        0.0001
      8 C           2.5006   31.4048    5.8184 C.ar    1  UNL1        0.0020
      9 C           3.7377   32.0115    6.1797 C.ar    1  UNL1        0.0237
     10 C           4.0670   32.5683    7.4543 C.ar    1  UNL1        0.0320
     11 C           7.6778   33.6650    6.7637 C.3     1  UNL1        0.0403
     12 C           8.8805   32.7870    7.0480 C.3     1  UNL1        0.0063
     13 C           8.6929   33.3669    5.6804 C.3     1  UNL1        0.0063
     14 C           6.0197   34.5953    9.5668 C.2     1  UNL1        0.0168
     15 C           5.8564   33.3560    9.0733 C.2     1  UNL1        0.0006
     16 O           7.3131   31.8278   12.6355 O.2     1  UNL1       -0.2500
     17 C           7.4908   32.8277   11.9246 C.2     1  UNL1        0.3197
     18 C           8.8206   33.0636   11.2656 C.3     1  UNL1        0.1388
     19 C           8.9874   34.3632   10.5026 C.3     1  UNL1        0.1256
     20 O          10.3213   34.8410   10.6930 O.3     1  UNL1       -0.3837
     21 C           8.0178   35.4276   10.9664 C.3     1  UNL1        0.0781
     22 C           6.6006   34.8867   10.9297 C.3     1  UNL1        0.1933
     23 O           6.4841   33.6956   11.7333 O.3     1  UNL1       -0.4475
     24 H          10.4464   35.6245   10.1295 H       1  UNL1        0.2104
     25 S           2.8108   32.7013    8.7584 S.3     1  UNL1       -0.0868
     26 C           2.6103   31.0084    9.3284 C.ar    1  UNL1        0.0296
     27 C           1.3646   30.3796    9.4629 C.ar    1  UNL1        0.0088
     28 C           1.2700   29.0569    9.9092 C.ar    1  UNL1        0.0301
     29 C           2.4230   28.3592   10.2373 C.ar    1  UNL1        0.1402
     30 F           2.3334   27.0866   10.6445 F       1  UNL1       -0.2042
     31 C           3.6676   28.9671   10.1456 C.ar    1  UNL1        0.0301
     32 C           3.7607   30.2899    9.6944 C.ar    1  UNL1        0.0088
@<TRIPOS>BOND
     1    16    17    2
     2    17    18    1
     3    17    23    1
     4    18    19    1
     5    19    20    1
     6    19    21    1
     7    20    24    1
     8    21    22    1
     9    22    23    1
    10    22    14    1
    11    14    15    2
    12    15     1    1
    13     1     2   ar
    14     1    10   ar
    15     2    11    1
    16     2     3   ar
    17    11    12    1
    18    11    13    1
    19    12    13    1
    20     3     4   ar
    21     4     5   ar
    22     4     9   ar
    23     5     6   ar
    24     6     7   ar
    25     7     8   ar
    26     8     9   ar
    27     9    10   ar
    28    10    25    1
    29    25    26    1
    30    26    27   ar
    31    26    32   ar
    32    27    28   ar
    33    28    29   ar
    34    29    30    1
    35    29    31   ar
    36    31    32   ar



#	Name:			CHEMBL6
#	Creating user name:	trannguyen
#	Creation time:		Wed Dec  7 14:36:25 2022


#	Modifying user name:	trannguyen
#	Modification time:	Wed Dec  7 14:36:25 2022

@<TRIPOS>MOLECULE
CHEMBL6
 26 28 0 0 0
SMALL
GASTEIGER

@<TRIPOS>ATOM
      1 C           2.2174   32.0610    6.6088 C.ar    1  UNL1        0.1388
      2 C           3.1521   33.0277    6.2569 C.ar    1  UNL1        0.0384
      3 C           4.3938   33.1009    6.9023 C.ar    1  UNL1        0.0207
      4 C           4.6885   32.1675    7.9188 C.ar    1  UNL1        0.0664
      5 C           3.7687   31.1816    8.2677 C.ar    1  UNL1        0.0169
      6 C           2.5290   31.1299    7.6006 C.ar    1  UNL1        0.0381
      7 C           4.3245   30.4018    9.3182 C.ar    1  UNL1        0.0025
      8 C           5.5466   30.9747    9.6405 C.ar    1  UNL1        0.0411
      9 C           6.3862   30.6824   10.8398 C.3     1  UNL1        0.0501
     10 N           5.8432   31.9581    8.6832 N.ar    1  UNL1       -0.2785
     11 C           7.0710   32.6454    8.4911 C.2     1  UNL1        0.2644
     12 O           7.0292   33.7588    7.9680 O.2     1  UNL1       -0.2666
     13 C           8.4180   32.1263    8.8362 C.ar    1  UNL1        0.0565
     14 C           9.2071   32.8675    9.7265 C.ar    1  UNL1        0.0056
     15 C          10.4965   32.4395   10.0461 C.ar    1  UNL1        0.0115
     16 C          10.9989   31.2733    9.4726 C.ar    1  UNL1        0.0577
     17 CL         12.5841   30.7412    9.8718 Cl      1  UNL1       -0.0822
     18 C          10.2295   30.5411    8.5677 C.ar    1  UNL1        0.0115
     19 C           8.9438   30.9771    8.2326 C.ar    1  UNL1        0.0056
     20 C           1.1373   32.5332    4.5692 C.3     1  UNL1        0.2525
     21 O           1.0353   32.0750    5.9162 O.3     1  UNL1       -0.4714
     22 C           3.6394   29.2477    9.9909 C.3     1  UNL1        0.1368
     23 C           2.2179   29.5829   10.3839 C.2     1  UNL1        0.3183
     24 O           1.2381   28.9342   10.0257 O.2     1  UNL1       -0.2499
     25 O           2.0929   30.7075   11.1263 O.3     1  UNL1       -0.4799
     26 H           2.9518   31.1239   11.3252 H       1  UNL1        0.2951
@<TRIPOS>BOND
     1    20    21    1
     2    21     1    1
     3     1     2   ar
     4     1     6   ar
     5     2     3   ar
     6     3     4   ar
     7     4     5   ar
     8     4    10   ar
     9     5     6   ar
    10     5     7   ar
    11     7    22    1
    12     7     8   ar
    13    22    23    1
    14    23    24    2
    15    23    25    1
    16    25    26    1
    17     8     9    1
    18     8    10   ar
    19    10    11   am
    20    11    12    2
    21    11    13    1
    22    13    14   ar
    23    13    19   ar
    24    14    15   ar
    25    15    16   ar
    26    16    17    1
    27    16    18   ar
    28    18    19   ar



#	Name:			CHEMBL600325
#	Creating user name:	trannguyen
#	Creation time:		Wed Dec  7 14:36:25 2022


#	Modifying user name:	trannguyen
#	Modification time:	Wed Dec  7 14:36:25 2022

@<TRIPOS>MOLECULE
CHEMBL600325
 42 47 0 0 0
SMALL
GASTEIGER

@<TRIPOS>ATOM
      1 C           7.1813   33.7145    9.9878 C.3     1  UNL1        0.1392
      2 C           5.6845   33.6779   10.1542 C.2     1  UNL1       -0.0056
      3 C           4.8603   32.7766    9.5851 C.2     1  UNL1       -0.0468
      4 C           3.3570   32.8747    9.7128 C.3     1  UNL1        0.0218
      5 C           2.6735   32.9789    8.3432 C.3     1  UNL1        0.0067
      6 C           3.1928   31.9568    7.2979 C.3     1  UNL1        0.0253
      7 C           4.7462   31.9089    7.2565 C.3     1  UNL1        0.0057
      8 C           5.3299   33.1520    6.5464 C.3     1  UNL1        0.0005
      9 C           4.3700   33.9993    5.7156 C.3     1  UNL1        0.0026
     10 C           3.2096   33.2782    5.0064 C.3     1  UNL1        0.0264
     11 C           2.1591   34.3821    4.6840 C.3     1  UNL1        0.0027
     12 C           3.5943   32.5949    3.6340 C.3     1  UNL1        0.0277
     13 C           2.6986   31.3473    3.5999 C.3     1  UNL1        0.0069
     14 C           2.6778   30.8564    5.0376 C.3     1  UNL1        0.0273
     15 C           2.5697   32.1405    5.8858 C.3     1  UNL1        0.0884
     16 O           1.1595   32.3630    6.0447 O.3     1  UNL1       -0.3867
     17 C           5.3583   31.6506    8.6889 C.3     1  UNL1        0.0151
     18 C           4.8811   30.2729    9.2338 C.3     1  UNL1        0.0040
     19 C           6.9109   31.5331    8.6824 C.3     1  UNL1        0.0066
     20 C           7.6841   32.8290    8.8448 C.3     1  UNL1        0.0345
     21 H           0.7881   31.6158    6.5455 H       1  UNL1        0.2102
     22 C           5.0668   32.3126    3.3427 C.ar    1  UNL1        0.0155
     23 C           5.8327   33.3710    2.7130 C.ar    1  UNL1        0.0055
     24 C           7.1027   33.1785    2.3381 C.ar    1  UNL1        0.0821
     25 C           7.7700   31.8865    2.5591 C.ar    1  UNL1        0.3460
     26 O           8.9371   31.7184    2.2046 O.2     1  UNL1       -0.2445
     27 O           7.0409   30.9072    3.1689 O.2     1  UNL1       -0.4182
     28 C           5.7016   31.1449    3.5179 C.ar    1  UNL1        0.1787
     29 O           7.5386   35.0872    9.7686 O.3     1  UNL1       -0.3267
     30 C           8.6778   39.1960    9.6942 C.3     1  UNL1        0.0348
     31 C           8.8136   37.6764    9.7010 C.3     1  UNL1        0.1471
     32 O           8.0216   37.1904   10.7943 O.3     1  UNL1       -0.3286
     33 C           8.0423   35.7639   10.9176 C.3     1  UNL1        0.2658
     34 C           9.4826   35.3124   11.2185 C.3     1  UNL1        0.1964
     35 O           9.9732   35.9078   12.4392 O.3     1  UNL1       -0.3775
     36 C          10.3929   35.7390   10.0682 C.3     1  UNL1        0.1714
     37 O          11.7636   35.4202   10.3631 O.3     1  UNL1       -0.3794
     38 C          10.2854   37.2483    9.8118 C.3     1  UNL1        0.1668
     39 O          10.9819   37.5794    8.6050 O.3     1  UNL1       -0.3795
     40 H           9.4592   36.7274   12.5864 H       1  UNL1        0.2106
     41 H          11.8608   35.5338   11.3312 H       1  UNL1        0.2105
     42 H          11.7133   36.9354    8.5272 H       1  UNL1        0.2105
@<TRIPOS>BOND
     1    31    32    1
     2    31    38    1
     3    31    30    1
     4    32    33    1
     5    33    34    1
     6    33    29    1
     7    29     1    1
     8     1     2    1
     9     1    20    1
    10     2     3    2
    11     3     4    1
    12     3    17    1
    13     4     5    1
    14     5     6    1
    15     6     7    1
    16     6    15    1
    17     7     8    1
    18     7    17    1
    19     8     9    1
    20     9    10    1
    21    10    12    1
    22    10    15    1
    23    10    11    1
    24    12    13    1
    25    12    22    1
    26    22    23   ar
    27    22    28   ar
    28    23    24   ar
    29    24    25   ar
    30    25    26    2
    31    25    27   ar
    32    27    28   ar
    33    13    14    1
    34    14    15    1
    35    15    16    1
    36    16    21    1
    37    17    19    1
    38    17    18    1
    39    19    20    1
    40    34    35    1
    41    34    36    1
    42    35    40    1
    43    36    37    1
    44    36    38    1
    45    37    41    1
    46    38    39    1
    47    39    42    1



#	Name:			CHEMBL603
#	Creating user name:	trannguyen
#	Creation time:		Wed Dec  7 14:36:25 2022


#	Modifying user name:	trannguyen
#	Modification time:	Wed Dec  7 14:36:25 2022

@<TRIPOS>MOLECULE
CHEMBL603
 43 47 0 0 0
SMALL
GASTEIGER

@<TRIPOS>ATOM
      1 C           7.0798   33.6908   -7.4375 C.ar    1  UNL1        0.1352
      2 C           7.6234   33.0929   -6.2884 C.ar    1  UNL1        0.0411
      3 C           7.9321   33.8616   -5.1562 C.ar    1  UNL1        0.0578
      4 C           7.5975   35.2073   -5.1302 C.ar    1  UNL1        0.0044
      5 C           7.0694   35.8015   -6.2721 C.ar    1  UNL1       -0.0008
      6 C           6.8455   35.0791   -7.4626 C.ar    1  UNL1        0.0162
      7 C           8.6627   33.2378   -4.0294 C.2     1  UNL1        0.2644
      8 O           9.8129   32.8346   -4.1846 O.2     1  UNL1       -0.2686
      9 N           7.9903   33.2473   -2.7982 N.am    1  UNL1       -0.1814
     10 H           7.0816   33.6912   -2.6908 H       1  UNL1        0.1769
     11 S           8.5411   32.5727   -1.3740 S.O2    1  UNL1        0.0755
     12 O           7.5099   31.6225   -1.0060 O.2     1  UNL1       -0.1499
     13 O           9.9170   32.1663   -1.5302 O.2     1  UNL1       -0.1499
     14 C           8.4699   33.8938   -0.1683 C.ar    1  UNL1        0.1213
     15 C           8.5682   35.2227   -0.6085 C.ar    1  UNL1        0.0199
     16 C           8.4859   36.2791    0.2971 C.ar    1  UNL1        0.0014
     17 C           8.2639   36.0237    1.6438 C.ar    1  UNL1       -0.0002
     18 C           8.1514   34.7081    2.0914 C.ar    1  UNL1       -0.0029
     19 C           8.2671   33.6221    1.2022 C.ar    1  UNL1       -0.0030
     20 C           8.2284   32.2360    1.7850 C.3     1  UNL1        0.0324
     21 C           6.8577   31.5606   -8.4565 C.3     1  UNL1        0.2525
     22 O           6.7105   32.9751   -8.5483 O.3     1  UNL1       -0.4717
     23 C           6.3346   35.7977   -8.7080 C.3     1  UNL1        0.0572
     24 C           7.3358   36.8777   -9.0302 C.ar    1  UNL1        0.0010
     25 C           8.6495   36.7111   -9.4347 C.ar    1  UNL1        0.0719
     26 N           9.2505   37.9426   -9.4810 N.ar    1  UNL1       -0.3243
     27 C          10.6494   38.1769   -9.7639 C.3     1  UNL1        0.1305
     28 C           8.3516   38.9252   -9.1330 C.ar    1  UNL1        0.0597
     29 C           8.5140   40.3040   -8.9508 C.ar    1  UNL1        0.0185
     30 C           7.4124   41.0428   -8.4973 C.ar    1  UNL1        0.0162
     31 C           6.1692   40.4475   -8.2920 C.ar    1  UNL1        0.0533
     32 C           6.0120   39.0864   -8.5794 C.ar    1  UNL1        0.0159
     33 C           7.1259   38.2951   -8.9307 C.ar    1  UNL1        0.0148
     34 N           5.0367   41.0840   -7.7546 N.am    1  UNL1       -0.2499
     35 C           4.7809   41.6016   -6.5189 C.2     1  UNL1        0.4053
     36 O           3.7096   42.1511   -6.2872 O.2     1  UNL1       -0.2261
     37 H           4.2489   41.2285   -8.3717 H       1  UNL1        0.1582
     38 O           5.8090   41.5265   -5.6473 O.3     1  UNL1       -0.4383
     39 C           5.6797   40.5056   -4.6697 C.3     1  UNL1        0.1705
     40 C           6.6261   39.3315   -4.8531 C.3     1  UNL1        0.0437
     41 C           6.6351   38.7027   -3.4701 C.3     1  UNL1        0.0038
     42 C           6.5524   39.8764   -2.4960 C.3     1  UNL1        0.0038
     43 C           6.0769   41.0737   -3.3112 C.3     1  UNL1        0.0437
@<TRIPOS>BOND
     1    21    22    1
     2    22     1    1
     3     1     2   ar
     4     1     6   ar
     5     2     3   ar
     6     3     7    1
     7     3     4   ar
     8     7     8    2
     9     7     9   am
    10     9    11    1
    11     9    10    1
    12    11    12    2
    13    11    13    2
    14    11    14    1
    15    14    15   ar
    16    14    19   ar
    17    15    16   ar
    18    16    17   ar
    19    17    18   ar
    20    18    19   ar
    21    19    20    1
    22     4     5   ar
    23     5     6   ar
    24     6    23    1
    25    23    24    1
    26    24    25   ar
    27    24    33   ar
    28    25    26   ar
    29    26    27    1
    30    26    28   ar
    31    28    29   ar
    32    28    33   ar
    33    29    30   ar
    34    30    31   ar
    35    31    34    1
    36    31    32   ar
    37    34    35   am
    38    34    37    1
    39    35    36    2
    40    35    38    1
    41    38    39    1
    42    39    40    1
    43    39    43    1
    44    40    41    1
    45    41    42    1
    46    42    43    1
    47    32    33   ar



#	Name:			CHEMBL606359
#	Creating user name:	trannguyen
#	Creation time:		Wed Dec  7 14:36:25 2022


#	Modifying user name:	trannguyen
#	Modification time:	Wed Dec  7 14:36:25 2022

@<TRIPOS>MOLECULE
CHEMBL606359
 34 38 0 0 0
SMALL
GASTEIGER

@<TRIPOS>ATOM
      1 C           2.1044   29.7711   10.3540 C.ar    1  UNL1        0.1388
      2 C           0.9015   30.2119    9.8244 C.ar    1  UNL1        0.0384
      3 C           0.9052   30.9822    8.6631 C.ar    1  UNL1        0.0222
      4 C           2.0819   31.3726    8.0455 C.ar    1  UNL1        0.0816
      5 N           1.9640   32.1063    6.9394 N.ar    1  UNL1       -0.2496
      6 C           3.0667   32.5572    6.2909 C.ar    1  UNL1        0.0590
      7 C           4.3530   32.3034    6.7908 C.ar    1  UNL1        0.0194
      8 C           4.4818   31.5250    7.9623 C.ar    1  UNL1        0.0321
      9 C           3.3184   30.9990    8.5954 C.ar    1  UNL1        0.0267
     10 C           3.2984   30.1480    9.7345 C.ar    1  UNL1        0.0389
     11 C           2.8298   33.3372    5.0034 C.3     1  UNL1        0.0403
     12 C           2.5893   32.5952    3.7056 C.3     1  UNL1        0.0063
     13 C           1.4625   33.3359    4.3624 C.3     1  UNL1        0.0063
     14 C           2.1841   27.6086   11.2887 C.3     1  UNL1        0.2525
     15 O           2.2349   29.0181   11.4869 O.3     1  UNL1       -0.4714
     16 C           5.5150   32.8440    6.0705 C.2     1  UNL1        0.0006
     17 C           6.0788   32.2055    5.0316 C.2     1  UNL1        0.0168
     18 C           7.2924   32.7049    4.2898 C.3     1  UNL1        0.1933
     19 C           7.1115   34.1706    3.9295 C.3     1  UNL1        0.0781
     20 C           8.2851   34.6156    3.0829 C.3     1  UNL1        0.1256
     21 O           9.4694   34.5929    3.8751 O.3     1  UNL1       -0.3837
     22 C           8.4474   33.7326    1.8627 C.3     1  UNL1        0.1388
     23 C           8.2747   32.2585    2.1100 C.2     1  UNL1        0.3197
     24 O           8.7091   31.4365    1.3182 O.2     1  UNL1       -0.2500
     25 O           7.4770   31.8796    3.1308 O.3     1  UNL1       -0.4475
     26 H          10.1774   35.0359    3.3723 H       1  UNL1        0.2104
     27 S           6.1302   31.1939    8.6436 S.3     1  UNL1       -0.0868
     28 C           6.4399   32.6788    9.5945 C.ar    1  UNL1        0.0296
     29 C           5.4208   33.6304    9.7482 C.ar    1  UNL1        0.0088
     30 C           5.6710   34.8369   10.4105 C.ar    1  UNL1        0.0301
     31 C           6.9308   35.0774   10.9442 C.ar    1  UNL1        0.1402
     32 F           7.1687   36.2257   11.5912 F       1  UNL1       -0.2042
     33 C           7.9466   34.1392   10.8204 C.ar    1  UNL1        0.0301
     34 C           7.7052   32.9481   10.1318 C.ar    1  UNL1        0.0088
@<TRIPOS>BOND
     1    14    15    1
     2    15     1    1
     3     1     2   ar
     4     1    10   ar
     5     2     3   ar
     6     3     4   ar
     7     4     5   ar
     8     4     9   ar
     9     5     6   ar
    10     6    11    1
    11     6     7   ar
    12    11    12    1
    13    11    13    1
    14    12    13    1
    15     7    16    1
    16     7     8   ar
    17    16    17    2
    18    18    19    1
    19    18    25    1
    20    18    17    1
    21    19    20    1
    22    20    22    1
    23    20    21    1
    24    21    26    1
    25    22    23    1
    26    23    24    2
    27    23    25    1
    28     8    27    1
    29     8     9   ar
    30    27    28    1
    31    28    29   ar
    32    28    34   ar
    33    29    30   ar
    34    30    31   ar
    35    31    32    1
    36    31    33   ar
    37    33    34   ar
    38     9    10   ar



#	Name:			CHEMBL606813
#	Creating user name:	trannguyen
#	Creation time:		Wed Dec  7 14:36:25 2022


#	Modifying user name:	trannguyen
#	Modification time:	Wed Dec  7 14:36:25 2022

@<TRIPOS>MOLECULE
CHEMBL606813
 33 37 0 0 0
SMALL
GASTEIGER

@<TRIPOS>ATOM
      1 C           5.1558   32.7523    7.7881 C.ar    1  UNL1        0.0194
      2 C           6.0350   32.6299    6.6890 C.ar    1  UNL1        0.0590
      3 N           5.5820   32.3134    5.4478 N.ar    1  UNL1       -0.2496
      4 C           4.2824   32.2083    5.2030 C.ar    1  UNL1        0.0815
      5 C           3.9246   31.9263    3.8900 C.ar    1  UNL1        0.0214
      6 C           2.5940   31.8212    3.5008 C.ar    1  UNL1        0.0312
      7 C           1.6124   32.0611    4.4423 C.ar    1  UNL1        0.1403
      8 F           0.3254   32.0120    4.0766 F       1  UNL1       -0.2042
      9 C           1.9466   32.3400    5.7677 C.ar    1  UNL1        0.0316
     10 C           3.3035   32.3637    6.1999 C.ar    1  UNL1        0.0259
     11 C           3.7776   32.5322    7.5471 C.ar    1  UNL1        0.0321
     12 C           7.5391   32.8699    6.7837 C.3     1  UNL1        0.0403
     13 C           8.5100   31.7426    7.0898 C.3     1  UNL1        0.0063
     14 C           8.4084   32.2792    5.6944 C.3     1  UNL1        0.0063
     15 C           5.8582   34.3887    9.5502 C.2     1  UNL1        0.0168
     16 C           5.7272   33.1186    9.1122 C.2     1  UNL1        0.0006
     17 O           7.3885   31.9463   12.8267 O.2     1  UNL1       -0.2500
     18 C           7.6079   32.8701   12.0650 C.2     1  UNL1        0.3197
     19 C           9.0005   33.1574   11.5750 C.3     1  UNL1        0.1388
     20 C           9.0196   33.9319   10.2782 C.3     1  UNL1        0.1256
     21 O          10.3651   34.3157   10.0052 O.3     1  UNL1       -0.3837
     22 C           8.1587   35.1708   10.4175 C.3     1  UNL1        0.0781
     23 C           6.7175   34.7941   10.7363 C.3     1  UNL1        0.1933
     24 O           6.6151   33.7167   11.7070 O.3     1  UNL1       -0.4475
     25 H          10.4024   34.6714    9.1001 H       1  UNL1        0.2104
     26 S           2.5763   32.4494    8.9041 S.3     1  UNL1       -0.0868
     27 C           2.5836   30.7321    9.4274 C.ar    1  UNL1        0.0296
     28 C           1.3559   30.0494    9.4247 C.ar    1  UNL1        0.0088
     29 C           1.2761   28.7055    9.8041 C.ar    1  UNL1        0.0301
     30 C           2.4299   28.0309   10.1750 C.ar    1  UNL1        0.1402
     31 F           2.3510   26.7498   10.5596 F       1  UNL1       -0.2042
     32 C           3.6649   28.6692   10.1412 C.ar    1  UNL1        0.0301
     33 C           3.7457   30.0184    9.7568 C.ar    1  UNL1        0.0088
@<TRIPOS>BOND
     1    17    18    2
     2    18    19    1
     3    18    24    1
     4    19    20    1
     5    20    21    1
     6    20    22    1
     7    21    25    1
     8    22    23    1
     9    23    24    1
    10    23    15    1
    11    15    16    2
    12    16     1    1
    13     1     2   ar
    14     1    11   ar
    15     2    12    1
    16     2     3   ar
    17    12    13    1
    18    12    14    1
    19    13    14    1
    20     3     4   ar
    21     4     5   ar
    22     4    10   ar
    23     5     6   ar
    24     6     7   ar
    25     7     8    1
    26     7     9   ar
    27     9    10   ar
    28    10    11   ar
    29    11    26    1
    30    26    27    1
    31    27    28   ar
    32    27    33   ar
    33    28    29   ar
    34    29    30   ar
    35    30    31    1
    36    30    32   ar
    37    32    33   ar



#	Name:			CHEMBL608
#	Creating user name:	trannguyen
#	Creation time:		Wed Dec  7 14:36:25 2022


#	Modifying user name:	trannguyen
#	Modification time:	Wed Dec  7 14:36:25 2022

@<TRIPOS>MOLECULE
CHEMBL608
 37 38 0 0 0
SMALL
GASTEIGER

@<TRIPOS>ATOM
      1 C           6.4954   39.2532   -3.5183 C.3     1  UNL1        0.0225
      2 C           7.8509   39.9541   -3.3769 C.3     1  UNL1        0.0860
      3 C           8.1615   40.1599   -1.8831 C.3     1  UNL1        0.0225
      4 S           9.2183   38.9978   -4.2194 S.3     1  UNL1       -0.1048
      5 C           8.6091   37.3260   -4.1231 C.ar    1  UNL1        0.0255
      6 C           8.1258   36.7104   -5.2776 C.ar    1  UNL1        0.0049
      7 C           7.7988   35.3471   -5.3115 C.ar    1  UNL1        0.0111
      8 C           7.8701   34.6613   -4.0720 C.ar    1  UNL1        0.1256
      9 O           7.5374   33.3348   -4.0444 O.3     1  UNL1       -0.5061
     10 C           8.2798   35.2659   -2.8518 C.ar    1  UNL1        0.0111
     11 C           8.6521   36.6192   -2.9216 C.ar    1  UNL1        0.0049
     12 H           6.5599   33.3082   -4.0747 H       1  UNL1        0.2922
     13 C           7.4681   34.6705   -6.6662 C.3     1  UNL1        0.0218
     14 C           6.0125   34.1439   -6.6717 C.3     1  UNL1        0.0045
     15 C           7.6563   35.6390   -7.8526 C.3     1  UNL1        0.0045
     16 C           8.3586   33.4304   -6.9735 C.3     1  UNL1        0.0045
     17 C           8.3706   34.4922   -1.5105 C.3     1  UNL1        0.0218
     18 C           9.0775   35.2850   -0.3751 C.3     1  UNL1        0.0045
     19 C           6.9658   34.1531   -0.9626 C.3     1  UNL1        0.0045
     20 C           9.1821   33.1896   -1.6875 C.3     1  UNL1        0.0045
     21 S           7.7686   41.6723   -4.1255 S.3     1  UNL1       -0.1048
     22 C           7.8721   41.3516   -5.8825 C.ar    1  UNL1        0.0255
     23 C           9.0830   41.5290   -6.5609 C.ar    1  UNL1        0.0049
     24 C           9.2042   41.3255   -7.9488 C.ar    1  UNL1        0.0111
     25 C           8.0202   40.9125   -8.6219 C.ar    1  UNL1        0.1256
     26 O           8.0596   40.8508   -9.9884 O.3     1  UNL1       -0.5061
     27 C           6.7909   40.6227   -7.9612 C.ar    1  UNL1        0.0111
     28 C           6.7653   40.8575   -6.5755 C.ar    1  UNL1        0.0049
     29 H           7.7381   41.7226  -10.2832 H       1  UNL1        0.2922
     30 C          10.5718   41.5550   -8.6586 C.3     1  UNL1        0.0218
     31 C          11.1351   40.2691   -9.3248 C.3     1  UNL1        0.0045
     32 C          10.4622   42.6080   -9.7854 C.3     1  UNL1        0.0045
     33 C          11.6667   42.0194   -7.6722 C.3     1  UNL1        0.0045
     34 C           5.5339   40.0550   -8.6768 C.3     1  UNL1        0.0218
     35 C           5.6129   38.5298   -8.9727 C.3     1  UNL1        0.0045
     36 C           4.2556   40.2540   -7.8336 C.3     1  UNL1        0.0045
     37 C           5.3348   40.7321  -10.0518 C.3     1  UNL1        0.0045
@<TRIPOS>BOND
     1     1     2    1
     2     2     3    1
     3     2     4    1
     4     2    21    1
     5     4     5    1
     6     5     6   ar
     7     5    11   ar
     8     6     7   ar
     9     7    13    1
    10     7     8   ar
    11    13    14    1
    12    13    15    1
    13    13    16    1
    14     8     9    1
    15     8    10   ar
    16     9    12    1
    17    10    17    1
    18    10    11   ar
    19    17    18    1
    20    17    19    1
    21    17    20    1
    22    21    22    1
    23    22    23   ar
    24    22    28   ar
    25    23    24   ar
    26    24    30    1
    27    24    25   ar
    28    30    31    1
    29    30    32    1
    30    30    33    1
    31    25    26    1
    32    25    27   ar
    33    26    29    1
    34    27    34    1
    35    27    28   ar
    36    34    35    1
    37    34    36    1
    38    34    37    1



#	Name:			CHEMBL608986
#	Creating user name:	trannguyen
#	Creation time:		Wed Dec  7 14:36:25 2022


#	Modifying user name:	trannguyen
#	Modification time:	Wed Dec  7 14:36:25 2022

@<TRIPOS>MOLECULE
CHEMBL608986
 43 48 0 0 0
SMALL
GASTEIGER

@<TRIPOS>ATOM
      1 C           7.5727   35.0500    0.5999 C.ar    1  UNL1        0.0584
      2 C           6.8310   33.9583    1.0644 C.ar    1  UNL1        0.0278
      3 C           6.6469   33.6415    2.3948 C.ar    1  UNL1        0.0820
      4 N           5.7344   32.7000    2.6825 N.ar    1  UNL1       -0.2496
      5 C           5.5242   32.2818    3.9609 C.ar    1  UNL1        0.0590
      6 C           6.3328   32.7850    5.0091 C.ar    1  UNL1        0.0194
      7 C           7.2457   33.8465    4.6764 C.ar    1  UNL1        0.0321
      8 C           7.4122   34.3063    3.3404 C.ar    1  UNL1        0.0259
      9 C           8.2822   35.3461    2.8843 C.ar    1  UNL1        0.0321
     10 C           8.3255   35.7322    1.5460 C.ar    1  UNL1        0.1461
     11 F           9.1371   36.7456    1.2020 F       1  UNL1       -0.2036
     12 C           4.4197   31.2170    4.0771 C.3     1  UNL1        0.0403
     13 C           3.2337   31.3875    4.9952 C.3     1  UNL1        0.0063
     14 C           3.0108   31.4229    3.5249 C.3     1  UNL1        0.0063
     15 C           6.1784   32.3851    6.4414 C.2     1  UNL1        0.0006
     16 C           5.3697   32.8837    7.4007 C.2     1  UNL1        0.0168
     17 C           5.4509   32.5193    8.8874 C.3     1  UNL1        0.1933
     18 C           6.8951   32.5692    9.3953 C.3     1  UNL1        0.0781
     19 C           7.0990   31.8331   10.7091 C.3     1  UNL1        0.1256
     20 O           6.6824   32.6660   11.7865 O.3     1  UNL1       -0.3837
     21 C           6.3862   30.5046   10.7824 C.3     1  UNL1        0.1388
     22 C           5.0194   30.5307   10.1887 C.2     1  UNL1        0.3197
     23 O           4.1160   29.7556   10.6114 O.2     1  UNL1       -0.2500
     24 O           4.8507   31.2127    9.0581 O.3     1  UNL1       -0.4475
     25 H           6.9813   32.2505   12.6172 H       1  UNL1        0.2104
     26 S           7.5668   35.5701   -1.1107 S.3     1  UNL1       -0.0845
     27 C           9.2024   33.3696   -4.1076 C.ar    1  UNL1        0.1392
     28 C          10.3573   32.8312   -3.5351 C.ar    1  UNL1        0.0369
     29 C          10.6389   33.0659   -2.1961 C.ar    1  UNL1        0.0036
     30 C           9.7316   33.7853   -1.4232 C.ar    1  UNL1        0.0067
     31 C           8.6435   34.4474   -2.0006 C.ar    1  UNL1        0.0325
     32 C           8.3741   34.2073   -3.3483 C.ar    1  UNL1        0.0434
     33 C           7.6036   33.0689   -5.8157 C.3     1  UNL1        0.2525
     34 O           8.9678   33.0122   -5.4098 O.3     1  UNL1       -0.4714
     35 S           8.2328   34.7048    5.9479 S.3     1  UNL1       -0.0867
     36 C           9.6579   33.6163    6.0667 C.ar    1  UNL1        0.0325
     37 C           9.6096   32.4640    6.8596 C.ar    1  UNL1        0.0067
     38 C          10.6231   31.5141    6.7954 C.ar    1  UNL1        0.0036
     39 C          11.7245   31.7349    5.9761 C.ar    1  UNL1        0.0369
     40 C          11.8452   32.9311    5.2686 C.ar    1  UNL1        0.1392
     41 C          10.7969   33.8579    5.2828 C.ar    1  UNL1        0.0434
     42 O          12.9718   33.0566    4.5017 O.3     1  UNL1       -0.4714
     43 C          13.8848   31.9657    4.5978 C.3     1  UNL1        0.2525
@<TRIPOS>BOND
     1    33    34    1
     2    34    27    1
     3    27    28   ar
     4    27    32   ar
     5    28    29   ar
     6    29    30   ar
     7    30    31   ar
     8    31    26    1
     9    31    32   ar
    10    26     1    1
    11     1     2   ar
    12     1    10   ar
    13     2     3   ar
    14     3     4   ar
    15     3     8   ar
    16     4     5   ar
    17     5    12    1
    18     5     6   ar
    19    12    13    1
    20    12    14    1
    21    13    14    1
    22     6    15    1
    23     6     7   ar
    24    15    16    2
    25    17    18    1
    26    17    24    1
    27    17    16    1
    28    18    19    1
    29    19    21    1
    30    19    20    1
    31    20    25    1
    32    21    22    1
    33    22    23    2
    34    22    24    1
    35     7    35    1
    36     7     8   ar
    37    35    36    1
    38    36    37   ar
    39    36    41   ar
    40    37    38   ar
    41    38    39   ar
    42    39    40   ar
    43    40    42    1
    44    40    41   ar
    45    42    43    1
    46     8     9   ar
    47     9    10   ar
    48    10    11    1



#	Name:			CHEMBL61
#	Creating user name:	trannguyen
#	Creation time:		Wed Dec  7 14:36:25 2022


#	Modifying user name:	trannguyen
#	Modification time:	Wed Dec  7 14:36:25 2022

@<TRIPOS>MOLECULE
CHEMBL61
 31 35 0 0 0
SMALL
GASTEIGER

@<TRIPOS>ATOM
      1 C           4.8789   31.9498    9.1700 C.3     1  UNL1        0.0554
      2 C           3.9125   30.8527    9.6096 C.ar    1  UNL1       -0.0164
      3 C           4.3931   29.5621    9.8946 C.ar    1  UNL1        0.0360
      4 C           3.4769   28.5980   10.2533 C.ar    1  UNL1        0.1761
      5 C           2.1305   28.8657   10.3118 C.ar    1  UNL1        0.1762
      6 C           1.6217   30.1204   10.0544 C.ar    1  UNL1        0.0379
      7 C           2.5225   31.1478    9.7331 C.ar    1  UNL1        0.0039
      8 C           2.0027   32.5576    9.5181 C.3     1  UNL1        0.1366
      9 O           1.4876   32.7222    8.2060 O.3     1  UNL1       -0.3799
     10 C           3.0284   33.6440    9.8591 C.3     1  UNL1        0.0861
     11 C           3.0955   34.8396    8.9353 C.3     1  UNL1        0.2117
     12 O           4.3878   35.4145    9.1552 O.3     1  UNL1       -0.4484
     13 C           5.2431   34.4498    9.6042 C.2     1  UNL1        0.3173
     14 O           6.4396   34.6033    9.7411 O.2     1  UNL1       -0.2501
     15 C           4.4833   33.2044    9.9580 C.3     1  UNL1        0.1134
     16 O           1.3978   27.7744   10.6589 O.3     1  UNL1       -0.4346
     17 C           2.4421   26.7981   10.8544 C.3     1  UNL1        0.4294
     18 O           3.7630   27.3091   10.5786 O.3     1  UNL1       -0.4346
     19 H           1.1784   31.8582    7.8800 H       1  UNL1        0.2108
     20 C           6.5024   32.2545    5.6995 C.ar    1  UNL1        0.1751
     21 C           6.3095   32.1434    7.0903 C.ar    1  UNL1        0.0363
     22 C           5.0306   32.0773    7.6540 C.ar    1  UNL1       -0.0117
     23 C           3.9550   32.0847    6.7619 C.ar    1  UNL1        0.0363
     24 C           4.1099   32.2250    5.3750 C.ar    1  UNL1        0.1751
     25 C           5.3937   32.3442    4.8285 C.ar    1  UNL1        0.2060
     26 C           8.6086   33.3069    5.4434 C.3     1  UNL1        0.2526
     27 O           7.7641   32.1952    5.1542 O.3     1  UNL1       -0.4683
     28 O           2.9026   32.3137    4.7284 O.3     1  UNL1       -0.4683
     29 C           2.3094   33.5983    4.6086 C.3     1  UNL1        0.2526
     30 O           5.4792   32.5482    3.4739 O.3     1  UNL1       -0.4654
     31 C           5.7419   33.8834    3.0513 C.3     1  UNL1        0.2528
@<TRIPOS>BOND
     1    26    27    1
     2    27    20    1
     3    20    21   ar
     4    20    25   ar
     5    21    22   ar
     6    22    23   ar
     7    22     1    1
     8     1     2    1
     9     1    15    1
    10     2     3   ar
    11     2     7   ar
    12     3     4   ar
    13     4     5   ar
    14     4    18    1
    15     5     6   ar
    16     5    16    1
    17     6     7   ar
    18     7     8    1
    19     8    10    1
    20     8     9    1
    21     9    19    1
    22    10    11    1
    23    10    15    1
    24    11    12    1
    25    12    13    1
    26    13    15    1
    27    13    14    2
    28    16    17    1
    29    17    18    1
    30    23    24   ar
    31    24    28    1
    32    24    25   ar
    33    28    29    1
    34    25    30    1
    35    30    31    1



#	Name:			CHEMBL611
#	Creating user name:	trannguyen
#	Creation time:		Wed Dec  7 14:36:25 2022


#	Modifying user name:	trannguyen
#	Modification time:	Wed Dec  7 14:36:25 2022

@<TRIPOS>MOLECULE
CHEMBL611
 30 33 0 0 0
SMALL
GASTEIGER

@<TRIPOS>ATOM
      1 C           3.1741   29.1470    9.8851 C.ar    1  UNL1        0.1739
      2 C           4.5141   29.4223   10.2390 C.ar    1  UNL1        0.0593
      3 C           5.1791   30.5777    9.8302 C.ar    1  UNL1        0.0901
      4 N           6.4470   30.8230   10.2034 N.ar    1  UNL1       -0.2134
      5 C           7.0292   31.9684    9.7998 C.ar    1  UNL1        0.2214
      6 N           6.4169   32.8497    8.9969 N.ar    1  UNL1       -0.1991
      7 C           5.1666   32.6004    8.6284 C.ar    1  UNL1        0.1298
      8 N           4.5946   33.5800    7.8057 N.pl3   1  UNL1       -0.3425
      9 C           4.4727   31.4680    9.0340 C.ar    1  UNL1        0.0522
     10 C           3.1314   31.2245    8.6834 C.ar    1  UNL1        0.0443
     11 C           2.4748   30.0641    9.0858 C.ar    1  UNL1        0.1726
     12 H           5.3154   34.2781    7.6562 H       1  UNL1        0.1437
     13 H           4.2954   33.1760    6.9248 H       1  UNL1        0.1437
     14 N           8.3314   32.2769   10.2162 N.pl3   1  UNL1       -0.2747
     15 C           8.3528   33.3209   11.2590 C.3     1  UNL1        0.1151
     16 C           9.8061   33.6092   11.6860 C.3     1  UNL1        0.1150
     17 N          10.6407   33.9292   10.5205 N.am    1  UNL1       -0.2741
     18 C          10.9183   35.2304   10.0838 C.2     1  UNL1        0.2529
     19 O          11.5137   35.4373    9.0289 O.2     1  UNL1       -0.2722
     20 C          10.6694   32.8412    9.5440 C.3     1  UNL1        0.1150
     21 C           9.2392   32.5248    9.0660 C.3     1  UNL1        0.1151
     22 C          10.4580   36.3886   11.0013 C.3     1  UNL1        0.1910
     23 C          11.3277   37.6405   10.9416 C.3     1  UNL1        0.0416
     24 C          10.3290   38.7747   10.9227 C.3     1  UNL1        0.0351
     25 C           9.1501   38.1594   10.2167 C.3     1  UNL1        0.1428
     26 O           9.1210   36.8002   10.6508 O.3     1  UNL1       -0.3471
     27 C           1.8117   27.9931   11.4907 C.3     1  UNL1        0.2526
     28 O           2.7239   27.9574   10.4004 O.3     1  UNL1       -0.4683
     29 O           1.1814   29.7993    8.7189 O.3     1  UNL1       -0.4684
     30 C           0.1682   30.7078    9.1383 C.3     1  UNL1        0.2526
@<TRIPOS>BOND
     1    27    28    1
     2    28     1    1
     3     1     2   ar
     4     1    11   ar
     5     2     3   ar
     6     3     4   ar
     7     3     9   ar
     8     4     5   ar
     9     5    14    1
    10     5     6   ar
    11    14    15    1
    12    14    21    1
    13    15    16    1
    14    16    17    1
    15    17    18   am
    16    17    20    1
    17    18    19    2
    18    18    22    1
    19    22    23    1
    20    22    26    1
    21    23    24    1
    22    24    25    1
    23    25    26    1
    24    20    21    1
    25     6     7   ar
    26     7     8    1
    27     7     9   ar
    28     8    12    1
    29     8    13    1
    30     9    10   ar
    31    10    11   ar
    32    11    29    1
    33    29    30    1



#	Name:			CHEMBL629
#	Creating user name:	trannguyen
#	Creation time:		Wed Dec  7 14:36:25 2022


#	Modifying user name:	trannguyen
#	Modification time:	Wed Dec  7 14:36:25 2022

@<TRIPOS>MOLECULE
CHEMBL629
 21 23 0 0 0
SMALL
GASTEIGER

@<TRIPOS>ATOM
      1 C           2.5199   31.3345    7.3638 C.2     1  UNL1       -0.0247
      2 C           2.9260   31.2919    8.6526 C.2     1  UNL1       -0.0048
      3 C           3.8555   32.3275    9.1569 C.ar    1  UNL1       -0.0043
      4 C           3.4207   33.6359    9.4044 C.ar    1  UNL1       -0.0003
      5 C           4.3321   34.6176    9.7927 C.ar    1  UNL1       -0.0000
      6 C           5.6773   34.2926    9.9537 C.ar    1  UNL1       -0.0003
      7 C           6.1106   32.9814    9.7515 C.ar    1  UNL1       -0.0043
      8 C           5.2022   31.9873    9.3624 C.ar    1  UNL1       -0.0218
      9 C           5.6493   30.5587    9.1704 C.3     1  UNL1        0.0310
     10 C           5.0231   29.6120   10.2020 C.3     1  UNL1        0.0310
     11 C           3.5303   29.3280   10.1536 C.ar    1  UNL1       -0.0218
     12 C           3.0863   28.2276   10.9197 C.ar    1  UNL1       -0.0043
     13 C           1.7361   27.8850   10.9927 C.ar    1  UNL1       -0.0003
     14 C           0.7952   28.6430   10.3106 C.ar    1  UNL1       -0.0000
     15 C           1.2089   29.7394    9.5551 C.ar    1  UNL1       -0.0003
     16 C           2.5707   30.0924    9.4569 C.ar    1  UNL1       -0.0043
     17 C           2.8366   32.3960    6.3359 C.3     1  UNL1        0.0433
     18 C           1.8163   32.4003    5.1842 C.3     1  UNL1        0.0769
     19 C           3.3153   33.2992    3.4877 C.3     1  UNL1        0.0897
     20 N           2.4136   32.2012    3.8467 N.3     1  UNL1       -0.2700
     21 C           3.1536   30.9350    3.8234 C.3     1  UNL1        0.0897
@<TRIPOS>BOND
     1    19    20    1
     2    20    21    1
     3    20    18    1
     4    18    17    1
     5    17     1    1
     6     1     2    2
     7     2     3    1
     8     2    16    1
     9     3     4   ar
    10     3     8   ar
    11     4     5   ar
    12     5     6   ar
    13     6     7   ar
    14     7     8   ar
    15     8     9    1
    16     9    10    1
    17    10    11    1
    18    11    12   ar
    19    11    16   ar
    20    12    13   ar
    21    13    14   ar
    22    14    15   ar
    23    15    16   ar



#	Name:			CHEMBL632
#	Creating user name:	trannguyen
#	Creation time:		Wed Dec  7 14:36:25 2022


#	Modifying user name:	trannguyen
#	Modification time:	Wed Dec  7 14:36:25 2022

@<TRIPOS>MOLECULE
CHEMBL632
 31 34 0 0 0
SMALL
GASTEIGER

@<TRIPOS>ATOM
      1 C           3.2811   33.4163    7.1303 C.3     1  UNL1        0.0028
      2 C           4.1966   32.3797    7.7717 C.3     1  UNL1        0.0315
      3 C           5.4956   32.1548    7.0008 C.3     1  UNL1        0.0029
      4 C           6.5168   31.5668    8.0096 C.3     1  UNL1        0.0054
      5 C           7.8576   32.3416    7.9572 C.3     1  UNL1        0.0334
      6 C           8.5337   32.0690    6.5913 C.3     1  UNL1        0.0071
      7 C           9.8831   32.7565    6.4531 C.3     1  UNL1        0.0226
      8 C          10.7851   32.3397    7.5818 C.2     1  UNL1       -0.0354
      9 C          11.9702   31.7591    7.3296 C.2     1  UNL1        0.0339
     10 C          12.8675   31.3061    8.4154 C.2     1  UNL1        0.1948
     11 O          13.9578   30.8246    8.1813 O.2     1  UNL1       -0.2866
     12 C          12.3736   31.4648    9.7994 C.2     1  UNL1        0.0378
     13 C          11.1942   32.0451   10.0528 C.2     1  UNL1       -0.0171
     14 C          10.2425   32.6078    8.9944 C.3     1  UNL1        0.0638
     15 C          10.2574   34.1452    9.1908 C.3     1  UNL1        0.0112
     16 C           8.7955   31.9473    9.1240 C.3     1  UNL1        0.1644
     17 F           8.9624   30.5796    9.0427 F       1  UNL1       -0.2369
     18 C           8.1015   32.2132   10.4775 C.3     1  UNL1        0.1409
     19 O           8.0313   33.5991   10.7543 O.3     1  UNL1       -0.3817
     20 C           6.6999   31.6082   10.6264 C.3     1  UNL1        0.0347
     21 C           5.7804   31.5131    9.3811 C.3     1  UNL1        0.0315
     22 C           5.1174   30.0934    9.5035 C.3     1  UNL1        0.0028
     23 C           4.6439   32.6067    9.2426 C.3     1  UNL1        0.1413
     24 O           3.5011   32.3187   10.0524 O.3     1  UNL1       -0.3797
     25 H           7.9443   33.7228   11.7199 H       1  UNL1        0.2104
     26 H           3.7898   32.0752   10.9474 H       1  UNL1        0.2108
     27 C           5.1084   34.0725    9.5245 C.2     1  UNL1        0.2038
     28 O           5.9455   34.6561    8.8288 O.2     1  UNL1       -0.2910
     29 C           4.4870   34.8087   10.7261 C.3     1  UNL1        0.2044
     30 O           5.3118   34.9173   11.8727 O.3     1  UNL1       -0.3749
     31 H           6.1890   35.2056   11.5512 H       1  UNL1        0.2110
@<TRIPOS>BOND
     1     1     2    1
     2     2     3    1
     3     2    23    1
     4     3     4    1
     5     4     5    1
     6     4    21    1
     7     5     6    1
     8     5    16    1
     9     6     7    1
    10     7     8    1
    11     8     9    2
    12     8    14    1
    13     9    10    1
    14    10    12    1
    15    10    11    2
    16    12    13    2
    17    13    14    1
    18    14    16    1
    19    14    15    1
    20    16    18    1
    21    16    17    1
    22    18    20    1
    23    18    19    1
    24    19    25    1
    25    20    21    1
    26    21    23    1
    27    21    22    1
    28    23    27    1
    29    23    24    1
    30    24    26    1
    31    27    28    2
    32    27    29    1
    33    29    30    1
    34    30    31    1



#	Name:			CHEMBL63323
#	Creating user name:	trannguyen
#	Creation time:		Wed Dec  7 14:36:25 2022


#	Modifying user name:	trannguyen
#	Modification time:	Wed Dec  7 14:36:25 2022

@<TRIPOS>MOLECULE
CHEMBL63323
 22 23 0 0 0
SMALL
GASTEIGER

@<TRIPOS>ATOM
      1 N           3.6515   31.7693    8.9634 N.pl3   1  UNL1       -0.2978
      2 H           4.3213   32.1565    9.6296 H       1  UNL1        0.1536
      3 C           1.7794   30.3913    9.7325 C.ar    1  UNL1        0.1071
      4 C           1.3172   29.1579   10.2132 C.ar    1  UNL1        0.0109
      5 C           2.2172   28.1263   10.4496 C.ar    1  UNL1        0.0210
      6 C           3.5542   28.3716   10.2133 C.ar    1  UNL1        0.1003
      7 N           4.0256   29.5466    9.7424 N.ar    1  UNL1       -0.2289
      8 C           3.1481   30.5487    9.4884 C.ar    1  UNL1        0.1384
      9 O          -0.0829   31.3194    8.6096 O.2     1  UNL1       -0.2450
     10 C           0.7652   31.4398    9.4745 C.2     1  UNL1        0.3408
     11 O           0.8894   32.5537   10.2264 O.3     1  UNL1       -0.4770
     12 H           1.6323   32.5321   10.8687 H       1  UNL1        0.2954
     13 C           4.0730   31.9762    7.6263 C.ar    1  UNL1        0.0493
     14 C           5.3413   32.5076    7.3640 C.ar    1  UNL1        0.0146
     15 C           5.7473   32.7773    6.0525 C.ar    1  UNL1        0.0012
     16 C           4.8828   32.5367    4.9847 C.ar    1  UNL1        0.0039
     17 C           3.5944   32.0461    5.2216 C.ar    1  UNL1        0.0726
     18 C           3.1957   31.8041    6.5461 C.ar    1  UNL1        0.0185
     19 C           2.6333   31.7555    4.0977 C.3     1  UNL1        0.4186
     20 F           1.3324   31.6858    4.4962 F       1  UNL1       -0.1659
     21 F           2.6712   32.7041    3.1205 F       1  UNL1       -0.1659
     22 F           2.8968   30.5715    3.4775 F       1  UNL1       -0.1659
@<TRIPOS>BOND
     1     9    10    2
     2    10    11    1
     3    10     3    1
     4    11    12    1
     5     3     4   ar
     6     3     8   ar
     7     4     5   ar
     8     5     6   ar
     9     6     7   ar
    10     7     8   ar
    11     8     1    1
    12     1    13    1
    13     1     2    1
    14    13    14   ar
    15    13    18   ar
    16    14    15   ar
    17    15    16   ar
    18    16    17   ar
    19    17    19    1
    20    17    18   ar
    21    19    20    1
    22    19    21    1
    23    19    22    1



#	Name:			CHEMBL64
#	Creating user name:	trannguyen
#	Creation time:		Wed Dec  7 14:36:25 2022


#	Modifying user name:	trannguyen
#	Modification time:	Wed Dec  7 14:36:25 2022

@<TRIPOS>MOLECULE
CHEMBL64
 13 13 0 0 0
SMALL
GASTEIGER

@<TRIPOS>ATOM
      1 N           0.2209   32.3435    8.6863 N.3     1  UNL1       -0.2541
      2 N           0.9376   31.1388    8.8587 N.am    1  UNL1       -0.2495
      3 C           1.8398   31.0365    9.9112 C.2     1  UNL1        0.2587
      4 O           2.0660   31.9593   10.6905 O.2     1  UNL1       -0.2689
      5 H           0.8563   33.0128    8.2398 H       1  UNL1        0.1405
      6 H           0.0890   32.7467    9.6244 H       1  UNL1        0.1405
      7 H           0.6068   30.3115    8.3683 H       1  UNL1        0.1690
      8 C           2.5135   29.7233   10.0839 C.ar    1  UNL1        0.0577
      9 C           1.7685   28.6624   10.6002 C.ar    1  UNL1        0.0252
     10 C           2.4009   27.4453   10.7689 C.ar    1  UNL1        0.0990
     11 N           3.6996   27.2305   10.4683 N.ar    1  UNL1       -0.2423
     12 C           4.4026   28.2787    9.9903 C.ar    1  UNL1        0.0990
     13 C           3.8631   29.5358    9.7821 C.ar    1  UNL1        0.0252
@<TRIPOS>BOND
     1     1     2    1
     2     1     5    1
     3     1     6    1
     4     2     3   am
     5     2     7    1
     6     3     4    2
     7     3     8    1
     8     8     9   ar
     9     8    13   ar
    10     9    10   ar
    11    10    11   ar
    12    11    12   ar
    13    12    13   ar



#	Name:			CHEMBL642
#	Creating user name:	trannguyen
#	Creation time:		Wed Dec  7 14:36:25 2022


#	Modifying user name:	trannguyen
#	Modification time:	Wed Dec  7 14:36:25 2022

@<TRIPOS>MOLECULE
CHEMBL642
 27 27 0 0 0
SMALL
GASTEIGER

@<TRIPOS>ATOM
      1 C           6.8019   32.7356    3.0460 C.ar    1  UNL1        0.0506
      2 C           7.3707   32.2944    4.2313 C.ar    1  UNL1        0.0178
      3 C           6.6020   32.0470    5.3633 C.ar    1  UNL1        0.0383
      4 C           5.2452   32.3541    5.3940 C.ar    1  UNL1        0.1414
      5 C           4.6449   32.8271    4.2147 C.ar    1  UNL1        0.0699
      6 C           5.4194   32.9885    3.0320 C.ar    1  UNL1        0.0205
      7 C           7.8136   31.8893    0.9179 C.2     1  UNL1        0.2261
      8 O           7.4538   30.7275    0.9733 O.2     1  UNL1       -0.2748
      9 N           7.5625   32.8968    1.8621 N.am    1  UNL1       -0.2839
     10 H           7.9335   33.8197    1.6799 H       1  UNL1        0.1549
     11 C           8.5831   32.4087   -0.2945 C.3     1  UNL1        0.0854
     12 C           7.7395   32.9111   -2.6286 C.3     1  UNL1        0.0005
     13 C           7.6693   33.2849   -1.1578 C.3     1  UNL1        0.0096
     14 C           3.1831   33.1559    4.1268 C.2     1  UNL1        0.1764
     15 C           2.2230   32.0953    3.6346 C.3     1  UNL1        0.0774
     16 O           2.7893   34.2493    4.5070 O.2     1  UNL1       -0.2912
     17 O           4.4927   32.1918    6.5275 O.3     1  UNL1       -0.4727
     18 C           4.9186   32.8790    7.7162 C.3     1  UNL1        0.2358
     19 C           3.7274   33.5587    8.4031 C.3     1  UNL1        0.1697
     20 O           3.0622   34.4241    7.4734 O.3     1  UNL1       -0.3793
     21 H           2.5363   33.8390    6.8943 H       1  UNL1        0.2106
     22 C           2.7035   32.5408    8.9627 C.3     1  UNL1        0.1020
     23 N           3.2553   31.6750   10.0275 N.3     1  UNL1       -0.2964
     24 H           2.7422   31.8087   10.8980 H       1  UNL1        0.1233
     25 C           3.2011   30.2447    9.6597 C.3     1  UNL1        0.0541
     26 C           4.5344   29.5594    9.9607 C.3     1  UNL1        0.0171
     27 C           2.0844   29.5472   10.4457 C.3     1  UNL1        0.0171
@<TRIPOS>BOND
     1    12    13    1
     2    13    11    1
     3    11     7    1
     4     7     8    2
     5     7     9   am
     6     9     1    1
     7     9    10    1
     8     1     2   ar
     9     1     6   ar
    10     2     3   ar
    11     3     4   ar
    12     4    17    1
    13     4     5   ar
    14    17    18    1
    15    18    19    1
    16    19    20    1
    17    19    22    1
    18    20    21    1
    19    22    23    1
    20    23    25    1
    21    23    24    1
    22    25    26    1
    23    25    27    1
    24     5    14    1
    25     5     6   ar
    26    14    15    1
    27    14    16    2



#	Name:			CHEMBL6466
#	Creating user name:	trannguyen
#	Creation time:		Wed Dec  7 14:36:25 2022


#	Modifying user name:	trannguyen
#	Modification time:	Wed Dec  7 14:36:25 2022

@<TRIPOS>MOLECULE
CHEMBL6466
 11 12 0 0 0
SMALL
GASTEIGER

@<TRIPOS>ATOM
      1 O           2.1999   26.6639   11.4090 O.2     1  UNL1       -0.2445
      2 C           2.4637   27.7097   10.8301 C.ar    1  UNL1        0.3459
      3 C           3.8612   28.0682   10.5261 C.ar    1  UNL1        0.0824
      4 C           4.1886   29.1767    9.8556 C.ar    1  UNL1        0.0097
      5 C           3.1364   30.0608    9.3820 C.ar    1  UNL1        0.0349
      6 C           3.4084   31.1893    8.6065 C.ar    1  UNL1        0.0030
      7 C           2.3583   31.9909    8.1464 C.ar    1  UNL1        0.0002
      8 C           1.0365   31.6790    8.4742 C.ar    1  UNL1        0.0031
      9 C           0.7583   30.5620    9.2596 C.ar    1  UNL1        0.0376
     10 C           1.8116   29.7612    9.6947 C.ar    1  UNL1        0.1487
     11 O           1.4838   28.6133   10.4417 O.2     1  UNL1       -0.4210
@<TRIPOS>BOND
     1     1     2    2
     2     2     3   ar
     3     2    11   ar
     4     3     4   ar
     5     4     5   ar
     6     5     6   ar
     7     5    10   ar
     8     6     7   ar
     9     7     8   ar
    10     8     9   ar
    11     9    10   ar
    12    10    11   ar



#	Name:			CHEMBL648
#	Creating user name:	trannguyen
#	Creation time:		Wed Dec  7 14:36:25 2022


#	Modifying user name:	trannguyen
#	Modification time:	Wed Dec  7 14:36:25 2022

@<TRIPOS>MOLECULE
CHEMBL648
 20 22 0 0 0
SMALL
GASTEIGER

@<TRIPOS>ATOM
      1 C           3.3551   31.6442    7.9277 C.3     1  UNL1        0.1031
      2 C           3.0378   32.8293    3.1768 C.3     1  UNL1        0.0897
      3 N           3.8561   32.2061    4.2170 N.3     1  UNL1       -0.2691
      4 C           4.2152   33.1734    5.2717 C.3     1  UNL1        0.0897
      5 C           3.0886   33.4872    6.2856 C.3     1  UNL1        0.0901
      6 N           2.4588   32.3030    6.9225 N.3     1  UNL1       -0.2644
      7 C           2.0522   31.3898    5.8248 C.3     1  UNL1        0.0901
      8 C           3.1714   31.0417    4.8126 C.3     1  UNL1        0.0897
      9 C           4.1563   32.6390    8.7903 C.ar    1  UNL1       -0.0036
     10 C           3.5300   33.5840    9.6209 C.ar    1  UNL1       -0.0026
     11 C           4.2789   34.5045   10.3578 C.ar    1  UNL1       -0.0003
     12 C           5.6709   34.4745   10.3020 C.ar    1  UNL1       -0.0000
     13 C           6.3118   33.5206    9.5176 C.ar    1  UNL1       -0.0003
     14 C           5.5617   32.6086    8.7681 C.ar    1  UNL1       -0.0026
     15 C           2.5961   30.6550    8.8272 C.ar    1  UNL1       -0.0036
     16 C           3.3065   29.7675    9.6558 C.ar    1  UNL1       -0.0026
     17 C           2.6350   28.8072   10.4156 C.ar    1  UNL1       -0.0003
     18 C           1.2450   28.7262   10.3677 C.ar    1  UNL1       -0.0000
     19 C           0.5240   29.6085    9.5670 C.ar    1  UNL1       -0.0003
     20 C           1.1937   30.5650    8.8017 C.ar    1  UNL1       -0.0026
@<TRIPOS>BOND
     1     2     3    1
     2     3     4    1
     3     3     8    1
     4     4     5    1
     5     5     6    1
     6     6     1    1
     7     6     7    1
     8     1     9    1
     9     1    15    1
    10     9    10   ar
    11     9    14   ar
    12    10    11   ar
    13    11    12   ar
    14    12    13   ar
    15    13    14   ar
    16    15    16   ar
    17    15    20   ar
    18    16    17   ar
    19    17    18   ar
    20    18    19   ar
    21    19    20   ar
    22     7     8    1



#	Name:			CHEMBL649
#	Creating user name:	trannguyen
#	Creation time:		Wed Dec  7 14:36:25 2022


#	Modifying user name:	trannguyen
#	Modification time:	Wed Dec  7 14:36:25 2022

@<TRIPOS>MOLECULE
CHEMBL649
 26 27 0 0 0
SMALL
GASTEIGER

@<TRIPOS>ATOM
      1 C           3.4662   31.4793    9.3943 C.ar    1  UNL1        0.1344
      2 C           4.8323   31.7062    9.2013 C.ar    1  UNL1        0.0366
      3 C           5.7414   30.6624    9.3886 C.ar    1  UNL1        0.0028
      4 C           5.3032   29.4060    9.7941 C.ar    1  UNL1       -0.0043
      5 C           3.9444   29.1665   10.0217 C.ar    1  UNL1       -0.0207
      6 C           3.0170   30.2065    9.8071 C.ar    1  UNL1        0.0104
      7 C           1.5402   29.9727   10.0577 C.3     1  UNL1        0.0608
      8 C           1.1443   28.4971   10.0875 C.3     1  UNL1        0.1419
      9 O          -0.1812   28.3563   10.6165 O.3     1  UNL1       -0.3816
     10 C           2.0970   27.6833   10.9643 C.3     1  UNL1        0.1418
     11 O           2.0418   28.1374   12.3223 O.3     1  UNL1       -0.3816
     12 C           3.5246   27.7732   10.4324 C.3     1  UNL1        0.0578
     13 H          -0.7836   28.8106   10.0014 H       1  UNL1        0.2105
     14 H           1.0903   28.2640   12.5092 H       1  UNL1        0.2105
     15 O           2.4911   32.4334    9.2658 O.3     1  UNL1       -0.4731
     16 C           2.3560   33.4310   10.2836 C.3     1  UNL1        0.2357
     17 C           3.3905   34.5588   10.0703 C.3     1  UNL1        0.1697
     18 O           4.0489   34.8735   11.3052 O.3     1  UNL1       -0.3793
     19 H           4.8496   35.3707   11.0660 H       1  UNL1        0.2106
     20 C           2.7286   35.8283    9.4916 C.3     1  UNL1        0.1020
     21 N           2.1706   36.6932   10.5531 N.3     1  UNL1       -0.2975
     22 H           1.9612   36.1052   11.3604 H       1  UNL1        0.1232
     23 C           0.7670   38.5848   11.1761 C.3     1  UNL1        0.0158
     24 C           0.9326   37.4179   10.1796 C.3     1  UNL1        0.0421
     25 C          -0.3086   36.5157   10.2969 C.3     1  UNL1        0.0158
     26 C           1.0153   38.0108    8.7630 C.3     1  UNL1        0.0158
@<TRIPOS>BOND
     1    23    24    1
     2    24    25    1
     3    24    26    1
     4    24    21    1
     5    21    20    1
     6    21    22    1
     7    20    17    1
     8    17    18    1
     9    17    16    1
    10    18    19    1
    11    16    15    1
    12    15     1    1
    13     1     2   ar
    14     1     6   ar
    15     2     3   ar
    16     3     4   ar
    17     4     5   ar
    18     5     6   ar
    19     5    12    1
    20     6     7    1
    21     7     8    1
    22     8     9    1
    23     8    10    1
    24     9    13    1
    25    10    12    1
    26    10    11    1
    27    11    14    1



#	Name:			CHEMBL650
#	Creating user name:	trannguyen
#	Creation time:		Wed Dec  7 14:36:25 2022


#	Modifying user name:	trannguyen
#	Modification time:	Wed Dec  7 14:36:25 2022

@<TRIPOS>MOLECULE
CHEMBL650
 30 33 0 0 0
SMALL
GASTEIGER

@<TRIPOS>ATOM
      1 C           3.0154   31.3292    4.7467 C.3     1  UNL1        0.0044
      2 C           3.8838   31.5741    5.9889 C.3     1  UNL1        0.0187
      3 C           4.7774   32.7939    5.7465 C.3     1  UNL1        0.0041
      4 C           5.8149   33.0259    6.8644 C.3     1  UNL1        0.0033
      5 C           7.0114   32.0378    6.7859 C.3     1  UNL1        0.0029
      6 C           7.8886   32.3182    5.5398 C.3     1  UNL1        0.0029
      7 C           9.2231   32.8914    6.0255 C.3     1  UNL1        0.0342
      8 C           9.0426   33.1746    7.5231 C.3     1  UNL1        0.1413
      9 O           8.4615   34.4724    7.6354 O.3     1  UNL1       -0.3797
     10 C           8.0189   32.0833    7.9738 C.3     1  UNL1        0.0313
     11 C           8.6999   30.6897    8.0891 C.3     1  UNL1        0.0028
     12 C           7.3506   32.3663    9.3311 C.3     1  UNL1        0.0319
     13 C           6.1994   33.3672    9.3304 C.3     1  UNL1        0.1111
     14 O           5.6565   33.3898   10.6467 O.3     1  UNL1       -0.3844
     15 C           5.1219   33.1103    8.2497 C.3     1  UNL1        0.0341
     16 C           4.0174   32.0101    8.5484 C.3     1  UNL1        0.0361
     17 C           4.5942   30.6561    9.0054 C.3     1  UNL1        0.0085
     18 C           3.0681   32.5437    9.6537 C.2     1  UNL1       -0.0197
     19 C           1.9390   31.8587    9.9269 C.2     1  UNL1        0.0377
     20 C           1.0745   31.7969    8.7038 C.2     1  UNL1        0.1948
     21 O          -0.1450   31.7278    8.7798 O.2     1  UNL1       -0.2866
     22 C           1.7842   31.7104    7.3931 C.2     1  UNL1        0.0338
     23 C           3.1332   31.7612    7.2968 C.2     1  UNL1       -0.0381
     24 H           9.1141   35.1266    7.3137 H       1  UNL1        0.2108
     25 H           5.0572   34.1538   10.7061 H       1  UNL1        0.2103
     26 C          10.3972   33.1093    8.2728 C.2     1  UNL1        0.2038
     27 O          11.4049   32.5910    7.7828 O.2     1  UNL1       -0.2910
     28 C          10.4822   33.7883    9.6294 C.3     1  UNL1        0.2044
     29 O          11.1241   32.9180   10.5503 O.3     1  UNL1       -0.3749
     30 H          10.5043   32.1801   10.7066 H       1  UNL1        0.2110
@<TRIPOS>BOND
     1     1     2    1
     2     2     3    1
     3     2    23    1
     4     3     4    1
     5     4     5    1
     6     4    15    1
     7     5     6    1
     8     5    10    1
     9     6     7    1
    10     7     8    1
    11     8    10    1
    12     8    26    1
    13     8     9    1
    14     9    24    1
    15    26    27    2
    16    26    28    1
    17    28    29    1
    18    29    30    1
    19    10    12    1
    20    10    11    1
    21    12    13    1
    22    13    15    1
    23    13    14    1
    24    14    25    1
    25    15    16    1
    26    16    18    1
    27    16    23    1
    28    16    17    1
    29    18    19    2
    30    19    20    1
    31    20    22    1
    32    20    21    2
    33    22    23    2



#	Name:			CHEMBL65037
#	Creating user name:	trannguyen
#	Creation time:		Wed Dec  7 14:36:24 2022


#	Modifying user name:	trannguyen
#	Modification time:	Wed Dec  7 14:36:24 2022

@<TRIPOS>MOLECULE
CHEMBL65037
 34 36 0 0 0
SMALL
GASTEIGER

@<TRIPOS>ATOM
      1 C           6.5406   32.9945    9.4574 C.ar    1  UNL1        0.0761
      2 N           5.6053   32.4066   10.2068 N.ar    1  UNL1       -0.1685
      3 N           4.7943   31.7644    9.3369 N.ar    1  UNL1       -0.2128
      4 C           4.9172   32.3274    8.0426 C.ar    1  UNL1        0.0816
      5 C           6.2165   32.8920    8.0511 C.ar    1  UNL1        0.0108
      6 C           3.8176   32.2971    7.0281 C.ar    1  UNL1        0.0176
      7 C           2.9712   31.1928    6.8554 C.ar    1  UNL1        0.0038
      8 C           1.9264   31.2064    5.9124 C.ar    1  UNL1        0.0297
      9 C           1.7154   32.3253    5.1215 C.ar    1  UNL1        0.1401
     10 F           0.6678   32.3698    4.2870 F       1  UNL1       -0.2042
     11 C           2.5922   33.3924    5.1842 C.ar    1  UNL1        0.0297
     12 C           3.6338   33.3745    6.1260 C.ar    1  UNL1        0.0038
     13 C           3.9684   30.6740    9.8166 C.ar    1  UNL1        0.1637
     14 C           4.4756   29.3756    9.8495 C.ar    1  UNL1        0.0388
     15 C           3.6303   28.3238   10.2167 C.ar    1  UNL1        0.0047
     16 C           2.3213   28.5918   10.5962 C.ar    1  UNL1        0.0208
     17 C           1.9150   29.9132   10.6207 C.ar    1  UNL1        0.1006
     18 N           2.7003   30.9493   10.2436 N.ar    1  UNL1       -0.2250
     19 C           7.4712   35.1087   10.5228 C.3     1  UNL1        0.0063
     20 C           7.7278   33.6418   10.1671 C.3     1  UNL1        0.0418
     21 C           8.1363   32.9121   11.4659 C.3     1  UNL1        0.0063
     22 C           7.1345   33.2813    6.8968 C.3     1  UNL1        0.0316
     23 C           7.2908   32.2986    5.7024 C.3     1  UNL1        0.0341
     24 C           6.9005   32.9533    4.3462 C.3     1  UNL1        0.1133
     25 O           8.0336   33.7507    3.9457 O.3     1  UNL1       -0.3844
     26 H           8.1184   33.7110    2.9768 H       1  UNL1        0.2103
     27 C           6.5183   32.0269    3.1472 C.3     1  UNL1        0.0588
     28 C           7.5846   31.7468    2.0676 C.3     1  UNL1        0.1185
     29 O           7.3754   30.4199    1.5642 O.3     1  UNL1       -0.3840
     30 H           7.1016   30.4892    0.6262 H       1  UNL1        0.2104
     31 C           7.6317   32.7396    0.8867 C.3     1  UNL1        0.0710
     32 C           8.2015   32.0625   -0.3264 C.2     1  UNL1        0.0528
     33 O           7.4711   31.5012   -1.1563 O.co2   1  UNL1       -0.5491
     34 O           9.4795   31.8649   -0.3189 O.co2   1  UNL1       -0.5491
@<TRIPOS>UNITY_ATOM_ATTR
33 1
charge -1
@<TRIPOS>BOND
     1    19    20    1
     2    20    21    1
     3    20     1    1
     4     1     2   ar
     5     1     5   ar
     6     2     3   ar
     7     3    13    1
     8     3     4   ar
     9    13    14   ar
    10    13    18   ar
    11    14    15   ar
    12    15    16   ar
    13    16    17   ar
    14    17    18   ar
    15     4     6    1
    16     4     5   ar
    17     6     7   ar
    18     6    12   ar
    19     7     8   ar
    20     8     9   ar
    21     9    10    1
    22     9    11   ar
    23    11    12   ar
    24     5    22    1
    25    22    23    1
    26    23    24    1
    27    24    25    1
    28    24    27    1
    29    25    26    1
    30    27    28    1
    31    28    29    1
    32    28    31    1
    33    29    30    1
    34    31    32    1
    35    32    33   ar
    36    32    34   ar






#	Name:			CHEMBL659
#	Creating user name:	trannguyen
#	Creation time:		Wed Dec  7 14:36:25 2022


#	Modifying user name:	trannguyen
#	Modification time:	Wed Dec  7 14:36:25 2022

@<TRIPOS>MOLECULE
CHEMBL659
 22 25 0 0 0
SMALL
GASTEIGER

@<TRIPOS>ATOM
      1 C           6.4999   32.0126    9.5712 C.ar    1  UNL1        0.1721
      2 C           6.6130   30.8070   10.2688 C.ar    1  UNL1        0.0397
      3 C           5.5349   29.9106   10.3595 C.ar    1  UNL1        0.0001
      4 C           4.3009   30.1910    9.7512 C.ar    1  UNL1       -0.0066
      5 C           4.1971   31.3964    9.0648 C.ar    1  UNL1        0.0187
      6 C           5.2737   32.2895    8.9877 C.ar    1  UNL1        0.1682
      7 O           4.9664   33.4180    8.2630 O.3     1  UNL1       -0.4757
      8 C           3.5159   33.4175    8.2303 C.3     1  UNL1        0.1761
      9 C           3.0353   34.1740    6.9908 C.3     1  UNL1        0.0779
     10 C           3.3843   33.4424    5.6947 C.3     1  UNL1        0.1358
     11 O           4.7565   33.6231    5.3729 O.3     1  UNL1       -0.3799
     12 C           3.1307   31.9712    5.7643 C.2     1  UNL1       -0.0015
     13 C           2.9554   31.2978    6.9123 C.2     1  UNL1       -0.0213
     14 C           3.0337   31.9360    8.2913 C.3     1  UNL1        0.0780
     15 C           1.6946   31.8596    9.0436 C.3     1  UNL1        0.0290
     16 C           1.1475   30.4570    9.3297 C.3     1  UNL1        0.0732
     17 N           1.9173   29.7049   10.3333 N.3     1  UNL1       -0.2677
     18 C           1.1023   28.5894   10.8312 C.3     1  UNL1        0.0899
     19 C           3.1831   29.1786    9.7940 C.3     1  UNL1        0.0990
     20 H           5.2677   33.3173    6.1471 H       1  UNL1        0.2108
     21 C           8.0073   33.3976   10.7872 C.3     1  UNL1        0.2526
     22 O           7.6357   32.7682    9.5690 O.3     1  UNL1       -0.4684
@<TRIPOS>BOND
     1    21    22    1
     2    22     1    1
     3     1     2   ar
     4     1     6   ar
     5     2     3   ar
     6     3     4   ar
     7     4     5   ar
     8     4    19    1
     9     5     6   ar
    10     5    14    1
    11     6     7    1
    12     7     8    1
    13     8     9    1
    14     8    14    1
    15     9    10    1
    16    10    11    1
    17    10    12    1
    18    11    20    1
    19    12    13    2
    20    14    13    1
    21    14    15    1
    22    15    16    1
    23    16    17    1
    24    17    18    1
    25    17    19    1



#	Name:			CHEMBL661
#	Creating user name:	trannguyen
#	Creation time:		Wed Dec  7 14:36:25 2022


#	Modifying user name:	trannguyen
#	Modification time:	Wed Dec  7 14:36:25 2022

@<TRIPOS>MOLECULE
CHEMBL661
 22 25 0 0 0
SMALL
GASTEIGER

@<TRIPOS>ATOM
      1 C           8.0889   31.9655    7.9364 C.3     1  UNL1        0.0742
      2 C           7.1938   32.8663    8.7003 C.ar    1  UNL1        0.1473
      3 N           7.5719   33.5702    9.7482 N.ar    1  UNL1       -0.1333
      4 N           6.4656   34.1596   10.2923 N.ar    1  UNL1       -0.1312
      5 C           5.4235   33.8078    9.5707 C.ar    1  UNL1        0.1717
      6 N           5.8285   33.0192    8.5152 N.ar    1  UNL1       -0.2791
      7 C           4.9950   32.5775    7.4553 C.ar    1  UNL1        0.0677
      8 C           5.5196   32.5081    6.1535 C.ar    1  UNL1        0.0185
      9 C           4.6967   32.1733    5.0749 C.ar    1  UNL1        0.0129
     10 C           3.3459   31.9200    5.2852 C.ar    1  UNL1        0.0578
     11 CL          2.3329   31.5267    3.9531 Cl      1  UNL1       -0.0822
     12 C           2.8101   31.9810    6.5684 C.ar    1  UNL1        0.0143
     13 C           3.6317   32.2894    7.6674 C.ar    1  UNL1        0.0343
     14 C           3.0054   32.2134    9.0281 C.2     1  UNL1        0.0779
     15 N           3.1556   33.0944    9.9580 N.2     1  UNL1       -0.2621
     16 C           4.0212   34.2465    9.7474 C.3     1  UNL1        0.1911
     17 C           2.1408   31.0305    9.3516 C.ar    1  UNL1        0.0173
     18 C           2.7363   29.8788    9.8803 C.ar    1  UNL1        0.0015
     19 C           1.9555   28.7628   10.1853 C.ar    1  UNL1        0.0000
     20 C           0.5808   28.7892    9.9540 C.ar    1  UNL1        0.0000
     21 C          -0.0149   29.9265    9.4091 C.ar    1  UNL1        0.0000
     22 C           0.7623   31.0452    9.1011 C.ar    1  UNL1        0.0015
@<TRIPOS>BOND
     1     1     2    1
     2     2     3   ar
     3     2     6   ar
     4     3     4   ar
     5     4     5   ar
     6     5     6   ar
     7     5    16    1
     8     6     7    1
     9     7     8   ar
    10     7    13   ar
    11     8     9   ar
    12     9    10   ar
    13    10    11    1
    14    10    12   ar
    15    12    13   ar
    16    13    14    1
    17    14    17    1
    18    14    15    2
    19    17    18   ar
    20    17    22   ar
    21    18    19   ar
    22    19    20   ar
    23    20    21   ar
    24    21    22   ar
    25    15    16    1



#	Name:			CHEMBL672
#	Creating user name:	trannguyen
#	Creation time:		Wed Dec  7 14:36:25 2022


#	Modifying user name:	trannguyen
#	Modification time:	Wed Dec  7 14:36:25 2022

@<TRIPOS>MOLECULE
CHEMBL672
 25 26 0 0 0
SMALL
GASTEIGER

@<TRIPOS>ATOM
      1 C           2.3162   31.9112    6.3663 C.ar    1  UNL1        0.1390
      2 C           2.2476   31.1028    5.2237 C.ar    1  UNL1        0.0370
      3 C           3.3403   30.9963    4.3506 C.ar    1  UNL1        0.0063
      4 C           4.4977   31.7466    4.5731 C.ar    1  UNL1        0.0391
      5 C           4.5399   32.6091    5.6719 C.ar    1  UNL1        0.0063
      6 C           3.4521   32.6923    6.5525 C.ar    1  UNL1        0.0370
      7 C           5.6963   31.6107    3.6982 C.2     1  UNL1        0.1955
      8 O           5.8232   30.5963    3.0138 O.2     1  UNL1       -0.2866
      9 C           6.7471   32.6682    3.6183 C.ar    1  UNL1        0.0390
     10 C           7.9342   32.5928    4.3598 C.ar    1  UNL1        0.0040
     11 C           8.9110   33.5853    4.2337 C.ar    1  UNL1        0.0115
     12 C           8.7125   34.6486    3.3558 C.ar    1  UNL1        0.0577
     13 CL          9.9232   35.8599    3.1977 Cl      1  UNL1       -0.0822
     14 C           7.5453   34.7274    2.5990 C.ar    1  UNL1        0.0115
     15 C           6.5649   33.7368    2.7273 C.ar    1  UNL1        0.0040
     16 O           1.2384   31.8659    7.2043 O.3     1  UNL1       -0.4720
     17 C           1.3520   31.5137    8.6012 C.3     1  UNL1        0.2212
     18 C           2.7169   30.7900    8.6767 C.3     1  UNL1        0.0553
     19 C           0.2826   30.4711    8.9728 C.3     1  UNL1        0.0553
     20 C           1.3718   32.6385    9.6851 C.2     1  UNL1        0.3534
     21 O           0.3860   33.2823   10.0603 O.2     1  UNL1       -0.2462
     22 O           2.6216   32.8137   10.2200 O.3     1  UNL1       -0.4499
     23 C           3.0800   34.9958   11.1703 C.3     1  UNL1        0.0473
     24 C           3.2548   34.0849    9.9577 C.3     1  UNL1        0.1692
     25 C           4.7368   33.8564    9.6745 C.3     1  UNL1        0.0473
@<TRIPOS>BOND
     1    23    24    1
     2    24    25    1
     3    24    22    1
     4    22    20    1
     5    20    21    2
     6    20    17    1
     7    17    18    1
     8    17    19    1
     9    17    16    1
    10    16     1    1
    11     1     2   ar
    12     1     6   ar
    13     2     3   ar
    14     3     4   ar
    15     4     7    1
    16     4     5   ar
    17     7     8    2
    18     7     9    1
    19     9    10   ar
    20     9    15   ar
    21    10    11   ar
    22    11    12   ar
    23    12    13    1
    24    12    14   ar
    25    14    15   ar
    26     5     6   ar



#	Name:			CHEMBL679
#	Creating user name:	trannguyen
#	Creation time:		Wed Dec  7 14:36:25 2022


#	Modifying user name:	trannguyen
#	Modification time:	Wed Dec  7 14:36:25 2022

@<TRIPOS>MOLECULE
CHEMBL679
 17 17 0 0 0
SMALL
GASTEIGER

@<TRIPOS>ATOM
      1 C           1.9497   30.5802    9.4769 C.ar    1  UNL1        0.0088
      2 C           3.2079   29.9912    9.7054 C.ar    1  UNL1        0.0014
      3 C           3.3113   28.7114   10.2587 C.ar    1  UNL1        0.0395
      4 C           2.1538   28.0185   10.5858 C.ar    1  UNL1        0.1675
      5 O           2.1891   26.7644   11.1281 O.3     1  UNL1       -0.5029
      6 C           0.9045   28.5940   10.3659 C.ar    1  UNL1        0.1672
      7 O          -0.2287   27.9087   10.6974 O.3     1  UNL1       -0.5029
      8 C           0.7921   29.8614    9.8134 C.ar    1  UNL1        0.0379
      9 H           3.1206   26.4907   11.1948 H       1  UNL1        0.2923
     10 H           0.0951   27.0603   11.0600 H       1  UNL1        0.2923
     11 C           1.8588   31.9789    8.8960 C.3     1  UNL1        0.1485
     12 O           0.8152   32.0120    7.9175 O.3     1  UNL1       -0.3786
     13 H           0.8233   31.1506    7.4653 H       1  UNL1        0.2108
     14 C           1.6023   33.0777    9.9576 C.3     1  UNL1        0.1028
     15 C           0.0079   34.7605   10.6254 C.3     1  UNL1        0.0859
     16 N           0.1752   33.4074   10.1130 N.3     1  UNL1       -0.2940
     17 H          -0.2729   33.3462    9.1962 H       1  UNL1        0.1234
@<TRIPOS>BOND
     1    15    16    1
     2    16    14    1
     3    16    17    1
     4    11    12    1
     5    11     1    1
     6    11    14    1
     7    12    13    1
     8     1     2   ar
     9     1     8   ar
    10     2     3   ar
    11     3     4   ar
    12     4     5    1
    13     4     6   ar
    14     5     9    1
    15     6     7    1
    16     6     8   ar
    17     7    10    1



#	Name:			CHEMBL683
#	Creating user name:	trannguyen
#	Creation time:		Wed Dec  7 14:36:25 2022


#	Modifying user name:	trannguyen
#	Modification time:	Wed Dec  7 14:36:25 2022

@<TRIPOS>MOLECULE
CHEMBL683
 15 15 0 0 0
SMALL
GASTEIGER

@<TRIPOS>ATOM
      1 O           2.8798   29.3374    9.4355 O.3     1  UNL1       -0.4720
      2 C           4.0979   29.8989    9.6778 C.ar    1  UNL1        0.1390
      3 C           5.0892   29.4417   10.5430 C.ar    1  UNL1        0.0378
      4 C           6.2794   30.1687   10.7022 C.ar    1  UNL1        0.0145
      5 C           6.4938   31.3346    9.9709 C.ar    1  UNL1        0.0579
      6 CL          7.9551   32.2198   10.1697 Cl      1  UNL1       -0.0822
      7 C           5.5284   31.7811    9.0766 C.ar    1  UNL1        0.0145
      8 C           4.3358   31.0650    8.9374 C.ar    1  UNL1        0.0378
      9 C           1.7228   30.9991   10.8830 C.3     1  UNL1        0.0553
     10 C           1.7096   29.6108   10.2154 C.3     1  UNL1        0.2210
     11 C           0.5719   29.6663    9.1722 C.3     1  UNL1        0.0553
     12 C           1.3610   28.4695   11.1895 C.2     1  UNL1        0.3503
     13 O           2.1100   28.0636   12.0769 O.2     1  UNL1       -0.2464
     14 O           0.1301   27.9323   11.0118 O.3     1  UNL1       -0.4778
     15 H          -0.3581   28.3045   10.2495 H       1  UNL1        0.2952
@<TRIPOS>BOND
     1     9    10    1
     2    10    11    1
     3    10     1    1
     4    10    12    1
     5     1     2    1
     6     2     3   ar
     7     2     8   ar
     8     3     4   ar
     9     4     5   ar
    10     5     6    1
    11     5     7   ar
    12     7     8   ar
    13    12    13    2
    14    12    14    1
    15    14    15    1



#	Name:			CHEMBL685
#	Creating user name:	trannguyen
#	Creation time:		Wed Dec  7 14:36:25 2022


#	Modifying user name:	trannguyen
#	Modification time:	Wed Dec  7 14:36:25 2022

@<TRIPOS>MOLECULE
CHEMBL685
 24 26 0 0 0
SMALL
GASTEIGER

@<TRIPOS>ATOM
      1 C           6.0492   32.3185    3.5067 C.ar    1  UNL1        0.2029
      2 N           4.8770   31.8424    3.1766 N.ar    1  UNL1       -0.2136
      3 C           4.1657   31.7414    4.3412 C.ar    1  UNL1        0.0997
      4 C           2.8565   31.2935    4.5546 C.ar    1  UNL1        0.0208
      5 C           2.3521   31.2739    5.8631 C.ar    1  UNL1        0.0048
      6 C           3.1245   31.7290    6.9414 C.ar    1  UNL1        0.0405
      7 C           4.4540   32.1533    6.7402 C.ar    1  UNL1        0.0217
      8 C           4.9301   32.1535    5.4247 C.ar    1  UNL1        0.0766
      9 N           6.1381   32.4960    4.8672 N.ar    1  UNL1       -0.3252
     10 H           6.9641   32.7674    5.3729 H       1  UNL1        0.1686
     11 C           7.6355   31.6985    1.8156 C.2     1  UNL1        0.4076
     12 O           7.2954   30.5495    1.6117 O.2     1  UNL1       -0.2260
     13 N           7.1131   32.6173    2.6968 N.am    1  UNL1       -0.2212
     14 H           7.5954   33.4893    2.7537 H       1  UNL1        0.1610
     15 C           8.5693   32.3784   -0.2198 C.3     1  UNL1        0.2574
     16 O           8.7094   32.2917    1.2021 O.3     1  UNL1       -0.4303
     17 C           2.5980   31.7391    8.3369 C.2     1  UNL1        0.1956
     18 O           2.2862   32.8186    8.8388 O.2     1  UNL1       -0.2866
     19 C           2.4294   30.5015    9.1500 C.ar    1  UNL1        0.0390
     20 C           1.1729   29.9811    9.4864 C.ar    1  UNL1        0.0032
     21 C           1.0780   28.8219   10.2630 C.ar    1  UNL1        0.0001
     22 C           2.2324   28.1932   10.7288 C.ar    1  UNL1        0.0000
     23 C           3.4849   28.7223   10.4232 C.ar    1  UNL1        0.0001
     24 C           3.5834   29.8742    9.6399 C.ar    1  UNL1        0.0032
@<TRIPOS>BOND
     1    15    16    1
     2    16    11    1
     3    11    12    2
     4    11    13   am
     5    13     1    1
     6    13    14    1
     7     1     2   ar
     8     1     9   ar
     9     2     3   ar
    10     3     4   ar
    11     3     8   ar
    12     4     5   ar
    13     5     6   ar
    14     6    17    1
    15     6     7   ar
    16    17    18    2
    17    17    19    1
    18    19    20   ar
    19    19    24   ar
    20    20    21   ar
    21    21    22   ar
    22    22    23   ar
    23    23    24   ar
    24     7     8   ar
    25     8     9   ar
    26     9    10    1



#	Name:			CHEMBL686
#	Creating user name:	trannguyen
#	Creation time:		Wed Dec  7 14:36:25 2022


#	Modifying user name:	trannguyen
#	Modification time:	Wed Dec  7 14:36:25 2022

@<TRIPOS>MOLECULE
CHEMBL686
 20 21 0 0 0
SMALL
GASTEIGER

@<TRIPOS>ATOM
      1 N           3.0839   31.7741    8.2263 N.pl3   1  UNL1       -0.3126
      2 H           3.7146   32.4571    8.6465 H       1  UNL1        0.1522
      3 C           5.5061   32.7623    3.9041 C.3     1  UNL1        0.0307
      4 C           4.3023   32.3187    4.6968 C.ar    1  UNL1       -0.0246
      5 C           3.1247   32.0309    3.9917 C.ar    1  UNL1       -0.0045
      6 C           1.9634   31.6852    4.6672 C.ar    1  UNL1        0.0009
      7 C           1.9704   31.6041    6.0564 C.ar    1  UNL1        0.0143
      8 C           3.1443   31.8148    6.8027 C.ar    1  UNL1        0.0440
      9 C           4.3243   32.2078    6.1145 C.ar    1  UNL1       -0.0124
     10 C           5.5818   32.5882    6.8625 C.3     1  UNL1        0.0320
     11 C           3.0477   30.6256    9.0729 C.ar    1  UNL1        0.0546
     12 C           4.2265   29.9828    9.4868 C.ar    1  UNL1        0.0148
     13 C           4.1857   28.8689   10.3317 C.ar    1  UNL1        0.0013
     14 C           2.9681   28.4013   10.8149 C.ar    1  UNL1        0.0003
     15 C           1.7897   29.0554   10.4624 C.ar    1  UNL1        0.0077
     16 C           1.8212   30.1602    9.5949 C.ar    1  UNL1        0.0888
     17 C           0.5095   30.7780    9.2614 C.2     1  UNL1        0.3392
     18 O          -0.3475   30.1994    8.6167 O.2     1  UNL1       -0.2450
     19 O           0.3760   32.0536    9.6848 O.3     1  UNL1       -0.4771
     20 H           1.1469   32.3663   10.2091 H       1  UNL1        0.2954
@<TRIPOS>BOND
     1     3     4    1
     2     4     5   ar
     3     4     9   ar
     4     5     6   ar
     5     6     7   ar
     6     7     8   ar
     7     8     1    1
     8     8     9   ar
     9     1    11    1
    10     1     2    1
    11    11    12   ar
    12    11    16   ar
    13    12    13   ar
    14    13    14   ar
    15    14    15   ar
    16    15    16   ar
    17    16    17    1
    18    17    18    2
    19    17    19    1
    20    19    20    1
    21     9    10    1



#	Name:			CHEMBL696
#	Creating user name:	trannguyen
#	Creation time:		Wed Dec  7 14:36:25 2022


#	Modifying user name:	trannguyen
#	Modification time:	Wed Dec  7 14:36:25 2022

@<TRIPOS>MOLECULE
CHEMBL696
 11 11 0 0 0
SMALL
GASTEIGER

@<TRIPOS>ATOM
      1 C           1.9990   29.9448    9.7210 C.3     1  UNL1        0.0778
      2 C           1.7899   31.2100   10.5693 C.3     1  UNL1        0.0096
      3 C           1.2373   28.7623   10.3463 C.3     1  UNL1        0.0940
      4 C           2.3113   27.9296   10.9868 C.2     1  UNL1        0.2286
      5 O           2.1259   26.9171   11.6410 O.2     1  UNL1       -0.2747
      6 N           3.5223   28.4548   10.6840 N.am    1  UNL1       -0.2553
      7 C           3.4524   29.5320    9.8634 C.2     1  UNL1        0.2276
      8 O           4.4135   30.0880    9.3581 O.2     1  UNL1       -0.2747
      9 H           4.3910   28.0138   10.9406 H       1  UNL1        0.1575
     10 C           1.6639   31.7064    7.8469 C.3     1  UNL1        0.0005
     11 C           1.6265   30.2371    8.2557 C.3     1  UNL1        0.0091
@<TRIPOS>BOND
     1    10    11    1
     2    11     1    1
     3     1     2    1
     4     1     3    1
     5     1     7    1
     6     3     4    1
     7     4     5    2
     8     4     6   am
     9     6     7   am
    10     6     9    1
    11     7     8    2



#	Name:			CHEMBL6966
#	Creating user name:	trannguyen
#	Creation time:		Wed Dec  7 14:36:25 2022


#	Modifying user name:	trannguyen
#	Modification time:	Wed Dec  7 14:36:25 2022

@<TRIPOS>MOLECULE
CHEMBL6966
 33 34 0 0 0
SMALL
GASTEIGER

@<TRIPOS>ATOM
      1 C           5.9830   34.1588    9.4452 C.3     1  UNL1        0.0197
      2 C           7.1385   34.9977    8.8277 C.3     1  UNL1        0.0187
      3 C           7.7887   36.0663    9.6959 C.3     1  UNL1        0.0722
      4 N           8.5749   35.7593   10.8827 N.3     1  UNL1       -0.2712
      5 C           8.6188   36.9637   11.6981 C.3     1  UNL1        0.0896
      6 C           9.9543   35.2773   10.5345 C.3     1  UNL1        0.0768
      7 C          10.3021   33.7897   10.1916 C.3     1  UNL1        0.0438
      8 C          11.0870   32.1378    6.2763 C.ar    1  UNL1        0.1724
      9 C          10.7183   31.3045    7.3494 C.ar    1  UNL1        0.0397
     10 C          10.3922   31.8198    8.6137 C.ar    1  UNL1       -0.0009
     11 C          10.2772   33.1833    8.7963 C.ar    1  UNL1       -0.0176
     12 C          10.3255   33.9010    7.6119 C.ar    1  UNL1        0.0358
     13 C          10.8853   33.4853    6.4102 C.ar    1  UNL1        0.1721
     14 C          12.9622   31.4733    5.0863 C.3     1  UNL1        0.2526
     15 O          11.5581   31.6614    5.0911 O.3     1  UNL1       -0.4684
     16 O          11.1194   34.5250    5.5567 O.3     1  UNL1       -0.4684
     17 C          10.1267   34.8987    4.6185 C.3     1  UNL1        0.2526
     18 C           5.7372   32.6597    9.0164 C.3     1  UNL1        0.0981
     19 C           5.8834   32.4839    7.4821 C.ar    1  UNL1       -0.0065
     20 C           7.0939   32.0965    6.9099 C.ar    1  UNL1        0.0000
     21 C           7.2502   32.0359    5.5268 C.ar    1  UNL1        0.0398
     22 C           6.2054   32.3076    4.6426 C.ar    1  UNL1        0.1724
     23 C           4.9389   32.5466    5.1843 C.ar    1  UNL1        0.1721
     24 C           4.8160   32.6968    6.5824 C.ar    1  UNL1        0.0367
     25 O           6.4157   32.3834    3.2905 O.3     1  UNL1       -0.4684
     26 C           6.8855   33.6362    2.7852 C.3     1  UNL1        0.2526
     27 O           3.7546   32.7071    4.5104 O.3     1  UNL1       -0.4684
     28 C           3.3839   34.0383    4.1618 C.3     1  UNL1        0.2526
     29 C           6.6730   31.6432    9.8043 C.3     1  UNL1        0.0169
     30 C           7.1659   32.1433   11.1751 C.3     1  UNL1        0.0014
     31 C           5.9911   30.2775   10.0580 C.3     1  UNL1        0.0014
     32 C           4.3406   32.3197    9.4160 C.1     1  UNL1        0.0752
     33 N           3.2334   31.9982    9.7376 N.1     1  UNL1       -0.1956
@<TRIPOS>BOND
     1    14    15    1
     2    15     8    1
     3     8     9   ar
     4     8    13   ar
     5     9    10   ar
     6    10    11   ar
     7    11     7    1
     8    11    12   ar
     9     7     6    1
    10     6     4    1
    11     4     5    1
    12     4     3    1
    13     3     2    1
    14     2     1    1
    15     1    18    1
    16    18    32    1
    17    18    19    1
    18    18    29    1
    19    32    33    3
    20    19    20   ar
    21    19    24   ar
    22    20    21   ar
    23    21    22   ar
    24    22    25    1
    25    22    23   ar
    26    25    26    1
    27    23    27    1
    28    23    24   ar
    29    27    28    1
    30    29    30    1
    31    29    31    1
    32    12    13   ar
    33    13    16    1
    34    16    17    1



#	Name:			CHEMBL701
#	Creating user name:	trannguyen
#	Creation time:		Wed Dec  7 14:36:25 2022


#	Modifying user name:	trannguyen
#	Modification time:	Wed Dec  7 14:36:25 2022

@<TRIPOS>MOLECULE
CHEMBL701
 17 17 0 0 0
SMALL
GASTEIGER

@<TRIPOS>ATOM
      1 C           2.2707   30.2298    9.7876 C.3     1  UNL1        0.0489
      2 C           3.6981   30.6583    9.3782 C.ar    1  UNL1       -0.0206
      3 C           3.9086   31.7010    8.4555 C.ar    1  UNL1       -0.0034
      4 C           5.2005   32.1074    8.0949 C.ar    1  UNL1        0.0111
      5 C           6.3079   31.4801    8.6541 C.ar    1  UNL1        0.0577
      6 CL          7.8937   31.9802    8.2078 Cl      1  UNL1       -0.0822
      7 C           6.1308   30.4482    9.5713 C.ar    1  UNL1        0.0111
      8 C           4.8350   30.0359    9.9279 C.ar    1  UNL1       -0.0034
      9 N          -0.0808   30.9296    9.1370 N.3     1  UNL1       -0.3209
     10 C           1.2810   30.6537    8.6645 C.3     1  UNL1        0.0701
     11 H          -0.7133   31.0109    8.3322 H       1  UNL1        0.1189
     12 H          -0.1057   31.8630    9.5686 H       1  UNL1        0.1189
     13 C           2.2125   28.7093   10.0689 C.3     1  UNL1        0.1151
     14 C           1.3225   28.2129   11.1989 C.2     1  UNL1        0.3142
     15 O           1.7508   27.7063   12.2150 O.2     1  UNL1       -0.2503
     16 O          -0.0024   28.2411   10.9453 O.3     1  UNL1       -0.4802
     17 H          -0.2306   28.9457   10.2932 H       1  UNL1        0.2951
@<TRIPOS>BOND
     1     9    10    1
     2     9    11    1
     3     9    12    1
     4    10     1    1
     5     1    13    1
     6     1     2    1
     7    13    14    1
     8    14    15    2
     9    14    16    1
    10    16    17    1
    11     2     3   ar
    12     2     8   ar
    13     3     4   ar
    14     4     5   ar
    15     5     6    1
    16     5     7   ar
    17     7     8   ar



#	Name:			CHEMBL702
#	Creating user name:	trannguyen
#	Creation time:		Wed Dec  7 14:36:25 2022


#	Modifying user name:	trannguyen
#	Modification time:	Wed Dec  7 14:36:25 2022

@<TRIPOS>MOLECULE
CHEMBL702
 39 42 0 0 0
SMALL
GASTEIGER

@<TRIPOS>ATOM
      1 CA          6.5845   32.8791    3.1491 C.3     1  UNL1        0.1727
      2 N          10.8516   31.7912    7.7558 N.am    1  UNL1       -0.2706
      3 C          11.0770   33.1956    7.4568 C.3     1  UNL1        0.1158
      4 C          10.6162   33.4758    6.0166 C.3     1  UNL1        0.1244
      5 N           9.2146   33.0938    5.8025 N.am    1  UNL1       -0.2053
      6 C           8.6616   33.2661    4.5322 C.2     1  UNL1        0.3107
      7 O           9.2993   33.7054    3.5760 O.2     1  UNL1       -0.2521
      8 N           7.3776   32.8097    4.3831 N.am    1  UNL1       -0.2788
      9 C           8.6331   32.2205    6.7243 C.2     1  UNL1        0.3098
     10 O           7.4456   32.2419    7.0275 O.2     1  UNL1       -0.2645
     11 C           9.6109   31.2487    7.4324 C.2     1  UNL1        0.3034
     12 O           9.2884   30.0840    7.6100 O.2     1  UNL1       -0.2649
     13 H           6.8373   32.7217    5.2429 H       1  UNL1        0.1517
     14 C          11.9254   30.9285    9.8340 C.3     1  UNL1        0.0233
     15 C          11.9130   30.9587    8.3148 C.3     1  UNL1        0.0940
     16 C           5.1287   32.5259    3.4633 C.ar    1  UNL1        0.0043
     17 C           4.7401   31.2458    3.8910 C.ar    1  UNL1       -0.0022
     18 C           3.3994   30.9443    4.1456 C.ar    1  UNL1       -0.0003
     19 C           2.4304   31.9379    4.0572 C.ar    1  UNL1       -0.0000
     20 C           2.8005   33.2296    3.6924 C.ar    1  UNL1       -0.0003
     21 C           4.1349   33.5192    3.3843 C.ar    1  UNL1       -0.0022
     22 C           7.2088   32.0620    1.9532 C.2     1  UNL1        0.2451
     23 O           7.1400   30.8405    1.8204 O.2     1  UNL1       -0.2729
     24 N           7.7177   32.8256    0.9176 N.am    1  UNL1       -0.2947
     25 H           7.7268   33.8381    1.0358 H       1  UNL1        0.1500
     26 CA          8.0589   32.2223   -0.3971 C.3     1  UNL1        0.1777
     27 C           9.4743   32.4491   -1.0227 C.2     1  UNL1        0.2471
     28 O          10.6672   32.4661   -0.6943 O.2     1  UNL1       -0.2730
     29 N           8.8942   32.7509   -2.2423 N.am    1  UNL1       -0.2597
     30 CA          9.4556   33.7759   -3.1394 C.3     1  UNL1        0.1843
     31 C           8.9321   35.1637   -2.6680 C.3     1  UNL1        0.0679
     32 C           8.3174   36.0780   -3.7360 C.3     1  UNL1        0.0131
     33 C          10.0602   35.9378   -1.9656 C.3     1  UNL1        0.0131
     34 S           7.5645   34.8588   -1.4344 S.3     1  UNL1       -0.1185
     35 C           7.5922   33.0417   -1.6306 C.3     1  UNL1        0.1509
     36 C           9.0791   33.3633   -4.5729 C.2     1  UNL1        0.3329
     37 O           7.9812   32.9600   -4.9209 O.2     1  UNL1       -0.2484
     38 OXT        10.0906   33.5360   -5.4664 O.3     1  UNL1       -0.4790
     39 HXT        10.8445   33.9824   -5.0287 H       1  UNL1        0.2951
@<TRIPOS>BOND
     1    14    15    1
     2    15     2    1
     3     2     3    1
     4     2    11   am
     5     3     4    1
     6     4     5    1
     7     5     6   am
     8     5     9   am
     9     6     7    2
    10     6     8   am
    11     8     1    1
    12     8    13    1
    13     1    22    1
    14     1    16    1
    15    22    23    2
    16    22    24   am
    17    24    25    1
    18    26    27    1
    19    26    35    1
    20    26    24    1
    21    27    28    2
    22    27    29   am
    23    29    30    1
    24    29    35    1
    25    30    31    1
    26    30    36    1
    27    36    37    2
    28    36    38    1
    29    38    39    1
    30    31    32    1
    31    31    33    1
    32    31    34    1
    33    34    35    1
    34    16    17   ar
    35    16    21   ar
    36    17    18   ar
    37    18    19   ar
    38    19    20   ar
    39    20    21   ar
    40     9    10    2
    41     9    11    1
    42    11    12    2



#	Name:			CHEMBL70927
#	Creating user name:	trannguyen
#	Creation time:		Wed Dec  7 14:36:25 2022


#	Modifying user name:	trannguyen
#	Modification time:	Wed Dec  7 14:36:25 2022

@<TRIPOS>MOLECULE
CHEMBL70927
 11 11 0 0 0
SMALL
GASTEIGER

@<TRIPOS>ATOM
      1 C           0.3042   30.5993    9.1768 C.3     1  UNL1        0.0534
      2 C           1.4250   29.6942    9.6462 C.ar    1  UNL1        0.0747
      3 C           1.1732   28.5866   10.3906 C.ar    1  UNL1        0.1847
      4 O          -0.0876   28.1240   10.7202 O.3     1  UNL1       -0.5020
      5 C           2.3383   27.7917   10.9169 C.ar    1  UNL1        0.2316
      6 O           2.1982   26.7902   11.6117 O.2     1  UNL1       -0.2832
      7 C           3.6955   28.2503   10.5630 C.ar    1  UNL1        0.0639
      8 C           3.8096   29.3350    9.7951 C.ar    1  UNL1        0.0792
      9 N           2.7460   30.0814    9.3071 N.ar    1  UNL1       -0.3248
     10 C           3.0208   31.2733    8.4898 C.3     1  UNL1        0.1303
     11 H          -0.7226   28.4313   10.0582 H       1  UNL1        0.2924
@<TRIPOS>BOND
     1     1     2    1
     2     2     3   ar
     3     2     9   ar
     4     3     4    1
     5     3     5   ar
     6     4    11    1
     7     5     6    2
     8     5     7   ar
     9     7     8   ar
    10     8     9   ar
    11     9    10    1



#	Name:			CHEMBL71
#	Creating user name:	trannguyen
#	Creation time:		Wed Dec  7 14:36:25 2022


#	Modifying user name:	trannguyen
#	Modification time:	Wed Dec  7 14:36:25 2022

@<TRIPOS>MOLECULE
CHEMBL71
 21 23 0 0 0
SMALL
GASTEIGER

@<TRIPOS>ATOM
      1 N           3.2459   31.8046    8.7386 N.pl3   1  UNL1       -0.2860
      2 C           2.3697   30.7789    9.1912 C.ar    1  UNL1        0.0576
      3 C           0.9679   30.9163    9.1059 C.ar    1  UNL1        0.0153
      4 C           0.0907   29.9158    9.5399 C.ar    1  UNL1        0.0013
      5 C           0.5923   28.7533   10.1077 C.ar    1  UNL1        0.0006
      6 C           1.9667   28.6069   10.2465 C.ar    1  UNL1        0.0077
      7 C           2.8536   29.6026    9.8002 C.ar    1  UNL1        0.0431
      8 S           4.5834   29.2501   10.0049 S.3     1  UNL1       -0.0844
      9 C           5.3263   30.8248    9.6592 C.ar    1  UNL1        0.0431
     10 C           6.6984   30.9327    9.9604 C.ar    1  UNL1        0.0086
     11 C           7.3916   32.1144    9.7258 C.ar    1  UNL1        0.0120
     12 C           6.7060   33.1970    9.2020 C.ar    1  UNL1        0.0589
     13 CL          7.5451   34.6813    8.9342 Cl      1  UNL1       -0.0822
     14 C           5.3477   33.1020    8.8854 C.ar    1  UNL1        0.0267
     15 C           4.6271   31.9053    9.0816 C.ar    1  UNL1        0.0585
     16 C           2.8609   32.4567    7.4552 C.3     1  UNL1        0.0970
     17 C           2.6478   31.4305    6.3341 C.3     1  UNL1        0.0391
     18 C           1.7511   31.9855    5.2174 C.3     1  UNL1        0.0739
     19 C           3.0524   33.3076    3.6357 C.3     1  UNL1        0.0897
     20 N           2.3868   32.0269    3.8868 N.3     1  UNL1       -0.2703
     21 C           3.3555   30.9330    3.7593 C.3     1  UNL1        0.0897
@<TRIPOS>BOND
     1    19    20    1
     2    20    21    1
     3    20    18    1
     4    18    17    1
     5    17    16    1
     6    16     1    1
     7     1     2    1
     8     1    15    1
     9     2     3   ar
    10     2     7   ar
    11     3     4   ar
    12     4     5   ar
    13     5     6   ar
    14     6     7   ar
    15     7     8    1
    16     8     9    1
    17     9    10   ar
    18     9    15   ar
    19    10    11   ar
    20    11    12   ar
    21    12    13    1
    22    12    14   ar
    23    14    15   ar



#	Name:			CHEMBL710
#	Creating user name:	trannguyen
#	Creation time:		Wed Dec  7 14:36:25 2022


#	Modifying user name:	trannguyen
#	Modification time:	Wed Dec  7 14:36:25 2022

@<TRIPOS>MOLECULE
CHEMBL710
 29 32 0 0 0
SMALL
GASTEIGER

@<TRIPOS>ATOM
      1 C           5.7267   33.1851    8.1205 C.3     1  UNL1        0.0765
      2 C           5.6472   34.0522    9.3920 C.3     1  UNL1        0.0091
      3 C           6.5268   33.3788   10.4351 C.3     1  UNL1        0.0005
      4 C           7.5599   32.5734    9.6292 C.3     1  UNL1        0.0005
      5 C           8.7566   33.4553    9.1823 C.3     1  UNL1        0.0004
      6 C           9.6448   33.9061   10.3558 C.3     1  UNL1        0.0017
      7 C          10.5678   32.8069   10.8630 C.3     1  UNL1        0.0199
      8 C          11.4897   32.2875    9.7596 C.3     1  UNL1        0.0755
      9 N          12.4904   33.2932    9.4232 N.am    1  UNL1       -0.3022
     10 C          13.3309   33.1467    8.3596 C.2     1  UNL1        0.2456
     11 O          14.3805   33.7798    8.2595 O.2     1  UNL1       -0.2702
     12 C          12.9052   32.2013    7.3119 C.2     1  UNL1        0.0532
     13 C          11.7057   31.5986    7.3543 C.2     1  UNL1       -0.0205
     14 C          10.7079   31.7841    8.4995 C.3     1  UNL1        0.0352
     15 C          10.1622   30.3771    8.8158 C.3     1  UNL1        0.0060
     16 C           9.6178   32.8366    8.0539 C.3     1  UNL1        0.0053
     17 C           8.7045   32.4356    6.8809 C.3     1  UNL1        0.0004
     18 C           7.5251   31.5445    7.2508 C.3     1  UNL1        0.0005
     19 C           6.6940   32.0037    8.4649 C.3     1  UNL1        0.0082
     20 C           5.9214   30.7587    8.9758 C.3     1  UNL1        0.0005
     21 H          12.8893   33.8607   10.1626 H       1  UNL1        0.1497
     22 N           4.2851   32.3666    6.3224 N.am    1  UNL1       -0.3075
     23 C           4.3283   32.7705    7.6422 C.2     1  UNL1        0.2219
     24 O           3.3513   32.7688    8.3832 O.2     1  UNL1       -0.2751
     25 H           5.0827   32.6174    5.7527 H       1  UNL1        0.1493
     26 C           2.3460   33.3043    5.1065 C.3     1  UNL1        0.0196
     27 C           3.0478   32.0267    5.5937 C.3     1  UNL1        0.0569
     28 C           2.0776   31.1934    6.4493 C.3     1  UNL1        0.0196
     29 C           3.4395   31.1814    4.3676 C.3     1  UNL1        0.0196
@<TRIPOS>BOND
     1    26    27    1
     2    27    28    1
     3    27    29    1
     4    27    22    1
     5    22    23   am
     6    22    25    1
     7    23    24    2
     8    23     1    1
     9     1     2    1
    10     1    19    1
    11     2     3    1
    12     3     4    1
    13     4     5    1
    14     4    19    1
    15     5     6    1
    16     5    16    1
    17     6     7    1
    18     7     8    1
    19     8     9    1
    20     8    14    1
    21     9    10   am
    22     9    21    1
    23    10    12    1
    24    10    11    2
    25    12    13    2
    26    13    14    1
    27    14    16    1
    28    14    15    1
    29    16    17    1
    30    17    18    1
    31    18    19    1
    32    19    20    1



#	Name:			CHEMBL711
#	Creating user name:	trannguyen
#	Creation time:		Wed Dec  7 14:36:25 2022


#	Modifying user name:	trannguyen
#	Modification time:	Wed Dec  7 14:36:25 2022

@<TRIPOS>MOLECULE
CHEMBL711
 17 19 0 0 0
SMALL
GASTEIGER

@<TRIPOS>ATOM
      1 O           0.2513   31.7617    8.2896 O.2     1  UNL1       -0.2905
      2 C           1.4326   31.5026    8.4379 C.2     1  UNL1        0.1841
      3 C           1.9081   30.3565    9.2113 C.ar    1  UNL1        0.0382
      4 C           1.1625   29.3978    9.8733 C.ar    1  UNL1        0.0030
      5 C           1.8588   28.3898   10.5469 C.ar    1  UNL1        0.0001
      6 C           3.2671   28.3615   10.5451 C.ar    1  UNL1        0.0001
      7 C           4.0018   29.3411    9.8702 C.ar    1  UNL1        0.0030
      8 C           3.2942   30.3288    9.2096 C.ar    1  UNL1        0.0382
      9 C           3.8122   31.4600    8.4421 C.2     1  UNL1        0.1841
     10 O           5.0017   31.6950    8.3196 O.2     1  UNL1       -0.2905
     11 C           2.6363   32.2610    7.8975 C.3     1  UNL1        0.1457
     12 C           2.6919   32.4272    6.3935 C.ar    1  UNL1       -0.0079
     13 C           2.9571   33.6558    5.7693 C.ar    1  UNL1       -0.0034
     14 C           2.9766   33.7586    4.3758 C.ar    1  UNL1       -0.0003
     15 C           2.7250   32.6396    3.5863 C.ar    1  UNL1       -0.0000
     16 C           2.4514   31.4152    4.1886 C.ar    1  UNL1       -0.0003
     17 C           2.4327   31.3103    5.5805 C.ar    1  UNL1       -0.0034
@<TRIPOS>BOND
     1     1     2    2
     2     2     3    1
     3     2    11    1
     4     3     4   ar
     5     3     8   ar
     6     4     5   ar
     7     5     6   ar
     8     6     7   ar
     9     7     8   ar
    10     8     9    1
    11     9    10    2
    12     9    11    1
    13    11    12    1
    14    12    13   ar
    15    12    17   ar
    16    13    14   ar
    17    14    15   ar
    18    15    16   ar
    19    16    17   ar



#	Name:			CHEMBL715
#	Creating user name:	trannguyen
#	Creation time:		Wed Dec  7 14:36:25 2022


#	Modifying user name:	trannguyen
#	Modification time:	Wed Dec  7 14:36:25 2022

@<TRIPOS>MOLECULE
CHEMBL715
 23 26 0 0 0
SMALL
GASTEIGER

@<TRIPOS>ATOM
      1 C           4.2776   33.1289    3.6210 C.3     1  UNL1        0.0382
      2 C           3.8928   32.7673    5.0129 C.ar    1  UNL1        0.0091
      3 C           4.7072   32.4552    6.0772 C.ar    1  UNL1        0.0114
      4 C           3.9803   32.1657    7.2927 C.ar    1  UNL1        0.1020
      5 C           2.6209   32.2098    7.0627 C.ar    1  UNL1        0.0857
      6 S           2.2519   32.7167    5.4639 S.2     1  UNL1       -0.0764
      7 N           1.5982   31.9254    7.9035 N.pl3   1  UNL1       -0.3045
      8 C           1.6693   30.8697    8.8435 C.ar    1  UNL1        0.0923
      9 C           0.4727   30.1646    9.1049 C.ar    1  UNL1        0.0184
     10 C           0.4368   29.0816    9.9833 C.ar    1  UNL1        0.0015
     11 C           1.5975   28.6892   10.6312 C.ar    1  UNL1        0.0039
     12 C           2.7798   29.3939   10.4061 C.ar    1  UNL1        0.0479
     13 C           2.8436   30.4877    9.5223 C.ar    1  UNL1        0.2064
     14 N           4.0800   31.1480    9.5228 N.2     1  UNL1       -0.0388
     15 C           4.5878   31.8883    8.5908 C.2     1  UNL1        0.3256
     16 H           0.6738   32.0168    7.4952 H       1  UNL1        0.1528
     17 N           5.8421   32.4854    8.7353 N.pl3   1  UNL1       -0.1877
     18 C           5.8925   33.8942    9.1924 C.3     1  UNL1        0.2197
     19 C           5.8870   33.9827   10.7365 C.3     1  UNL1        0.1237
     20 N           6.9433   33.1984   11.4141 N.3     1  UNL1       -0.2645
     21 C           8.2613   33.8067   11.2566 C.3     1  UNL1        0.0898
     22 C           6.9120   31.8087   10.9002 C.3     1  UNL1        0.1237
     23 C           6.9165   31.6818    9.3587 C.3     1  UNL1        0.2197
@<TRIPOS>BOND
     1     1     2    1
     2     2     3   ar
     3     2     6   ar
     4     3     4   ar
     5     4     5   ar
     6     4    15    1
     7     5     6   ar
     8     5     7    1
     9     7     8    1
    10     7    16    1
    11     8     9   ar
    12     8    13   ar
    13     9    10   ar
    14    10    11   ar
    15    11    12   ar
    16    12    13   ar
    17    13    14    1
    18    14    15    2
    19    15    17    1
    20    17    18    1
    21    17    23    1
    22    18    19    1
    23    19    20    1
    24    20    21    1
    25    20    22    1
    26    22    23    1



#	Name:			CHEMBL717
#	Creating user name:	trannguyen
#	Creation time:		Wed Dec  7 14:36:25 2022


#	Modifying user name:	trannguyen
#	Modification time:	Wed Dec  7 14:36:25 2022

@<TRIPOS>MOLECULE
CHEMBL717
 28 31 0 0 0
SMALL
GASTEIGER

@<TRIPOS>ATOM
      1 C           9.5055   33.0433    7.5859 C.3     1  UNL1        0.1859
      2 C           9.4818   32.3884    6.1978 C.3     1  UNL1        0.0474
      3 C           8.0161   32.4297    5.7933 C.3     1  UNL1        0.0042
      4 C           7.2078   32.1712    7.0800 C.3     1  UNL1        0.0038
      5 C           5.9171   33.0172    7.1413 C.3     1  UNL1        0.0007
      6 C           4.9573   32.7750    5.9600 C.3     1  UNL1        0.0040
      7 C           4.0335   31.5687    6.1458 C.3     1  UNL1        0.0184
      8 C           3.2424   31.3230    4.8533 C.3     1  UNL1        0.0043
      9 C           3.2016   31.7764    7.4080 C.2     1  UNL1       -0.0423
     10 C           1.8498   31.7865    7.3973 C.2     1  UNL1        0.0289
     11 C           1.0473   31.8416    8.6445 C.2     1  UNL1        0.1725
     12 O          -0.1794   31.8678    8.5661 O.2     1  UNL1       -0.2914
     13 C           1.7689   31.7552    9.9591 C.3     1  UNL1        0.0694
     14 C           3.1195   32.4456    9.8597 C.3     1  UNL1        0.0118
     15 C           4.0210   31.9175    8.6966 C.3     1  UNL1        0.0157
     16 C           4.5181   30.5001    9.0677 C.3     1  UNL1        0.0041
     17 C           5.1902   32.9715    8.5145 C.3     1  UNL1        0.0035
     18 C           6.1696   33.0032    9.7126 C.3     1  UNL1        0.0004
     19 C           7.5992   33.3766    9.3312 C.3     1  UNL1        0.0038
     20 C           8.2064   32.4316    8.2641 C.3     1  UNL1        0.0401
     21 C           8.5060   31.0530    8.9141 C.3     1  UNL1        0.0039
     22 C          10.7815   32.7421    8.4256 C.2     1  UNL1        0.1869
     23 C          11.8598   31.8729    7.8194 C.3     1  UNL1        0.0760
     24 O          10.9055   33.1771    9.5751 O.2     1  UNL1       -0.2924
     25 O           9.2920   34.4645    7.3912 O.3     1  UNL1       -0.4486
     26 C          10.5680   36.3353    8.0264 C.3     1  UNL1        0.1212
     27 C          10.3589   35.2339    7.0334 C.2     1  UNL1        0.3177
     28 O          10.9866   35.1359    5.9894 O.2     1  UNL1       -0.2501
@<TRIPOS>BOND
     1    26    27    1
     2    27    28    2
     3    27    25    1
     4     1     2    1
     5     1    20    1
     6     1    25    1
     7     1    22    1
     8    22    23    1
     9    22    24    2
    10     2     3    1
    11     3     4    1
    12     4     5    1
    13     4    20    1
    14     5     6    1
    15     5    17    1
    16     6     7    1
    17     7     9    1
    18     7     8    1
    19     9    10    2
    20     9    15    1
    21    10    11    1
    22    11    13    1
    23    11    12    2
    24    13    14    1
    25    14    15    1
    26    15    17    1
    27    15    16    1
    28    17    18    1
    29    18    19    1
    30    19    20    1
    31    20    21    1



#	Name:			CHEMBL720
#	Creating user name:	trannguyen
#	Creation time:		Wed Dec  7 14:36:25 2022


#	Modifying user name:	trannguyen
#	Modification time:	Wed Dec  7 14:36:25 2022

@<TRIPOS>MOLECULE
CHEMBL720
 9 9 0 0 0
SMALL
GASTEIGER

@<TRIPOS>ATOM
      1 C           1.8455   29.0012    9.9531 C.ar    1  UNL1        0.0070
      2 C           2.5973   30.1514    9.6756 C.ar    1  UNL1       -0.0019
      3 C           3.9926   30.1020    9.6681 C.ar    1  UNL1       -0.0002
      4 C           4.6498   28.9009    9.9280 C.ar    1  UNL1       -0.0000
      5 C           3.9130   27.7469   10.1885 C.ar    1  UNL1       -0.0002
      6 C           2.5177   27.7952   10.1963 C.ar    1  UNL1       -0.0019
      7 O          -0.1555   28.0274   10.7967 O.3     1  UNL1       -0.3772
      8 C           0.3445   29.0518    9.9526 C.3     1  UNL1        0.1636
      9 H          -1.1238   28.0927   10.7727 H       1  UNL1        0.2109
@<TRIPOS>BOND
     1     7     8    1
     2     7     9    1
     3     8     1    1
     4     1     2   ar
     5     1     6   ar
     6     2     3   ar
     7     3     4   ar
     8     4     5   ar
     9     5     6   ar



#	Name:			CHEMBL727
#	Creating user name:	trannguyen
#	Creation time:		Wed Dec  7 14:36:25 2022


#	Modifying user name:	trannguyen
#	Modification time:	Wed Dec  7 14:36:25 2022

@<TRIPOS>MOLECULE
CHEMBL727
 15 16 0 0 0
SMALL
GASTEIGER

@<TRIPOS>ATOM
      1 N          -0.6457   28.4773   10.2981 N.pl3   1  UNL1       -0.3289
      2 C           0.6098   28.9842   10.2322 C.ar    1  UNL1        0.1930
      3 N           1.6429   28.1925   10.3536 N.ar    1  UNL1       -0.1967
      4 C           2.8264   28.8382   10.2347 C.ar    1  UNL1        0.1643
      5 N           4.0583   28.2596   10.2881 N.ar    1  UNL1       -0.3202
      6 H           4.2442   27.2784   10.4313 H       1  UNL1        0.1689
      7 C           4.9801   29.2565   10.0911 C.ar    1  UNL1        0.1762
      8 N           4.4096   30.4334    9.9290 N.ar    1  UNL1       -0.2205
      9 C           3.0663   30.1747   10.0160 C.ar    1  UNL1        0.1391
     10 C           1.9093   31.0249    9.9042 C.ar    1  UNL1        0.1160
     11 S           2.0315   32.6537    9.6404 S.2     1  UNL1       -0.0303
     12 N           0.7057   30.3511   10.0325 N.ar    1  UNL1       -0.3203
     13 H          -0.1322   30.8998    9.9293 H       1  UNL1        0.1691
     14 H          -0.6833   27.5351   10.6729 H       1  UNL1        0.1451
     15 H          -1.4025   29.0763   10.5951 H       1  UNL1        0.1451
@<TRIPOS>BOND
     1     1     2    1
     2     1    14    1
     3     1    15    1
     4     2     3   ar
     5     2    12   ar
     6     3     4   ar
     7     4     5   ar
     8     4     9   ar
     9     5     6    1
    10     5     7   ar
    11     7     8   ar
    12     8     9   ar
    13     9    10   ar
    14    10    11    2
    15    10    12   ar
    16    12    13    1



#	Name:			CHEMBL728
#	Creating user name:	trannguyen
#	Creation time:		Wed Dec  7 14:36:25 2022


#	Modifying user name:	trannguyen
#	Modification time:	Wed Dec  7 14:36:25 2022

@<TRIPOS>MOLECULE
CHEMBL728
 25 28 0 0 0
SMALL
GASTEIGER

@<TRIPOS>ATOM
      1 N           3.6328   31.5731    9.0500 N.pl3   1  UNL1       -0.2860
      2 C           5.0309   31.8798    9.0658 C.ar    1  UNL1        0.0576
      3 C           5.5612   33.0390    8.4462 C.ar    1  UNL1        0.0153
      4 C           6.9172   33.3885    8.5228 C.ar    1  UNL1        0.0013
      5 C           7.8015   32.5835    9.2082 C.ar    1  UNL1        0.0006
      6 C           7.3324   31.4138    9.7957 C.ar    1  UNL1        0.0077
      7 C           5.9679   31.0560    9.7187 C.ar    1  UNL1        0.0431
      8 S           5.5659   29.4991   10.4699 S.3     1  UNL1       -0.0844
      9 C           3.8141   29.3856   10.2152 C.ar    1  UNL1        0.0431
     10 C           3.2252   28.1933   10.6954 C.ar    1  UNL1        0.0086
     11 C           1.8523   27.9907   10.6180 C.ar    1  UNL1        0.0120
     12 C           1.0651   28.9868   10.0798 C.ar    1  UNL1        0.0589
     13 CL         -0.6444   28.7842   10.0110 Cl      1  UNL1       -0.0822
     14 C           1.6416   30.1644    9.5816 C.ar    1  UNL1        0.0267
     15 C           3.0389   30.3941    9.6059 C.ar    1  UNL1        0.0585
     16 C           2.7489   32.4934    8.2855 C.3     1  UNL1        0.0970
     17 C           2.5138   31.9819    6.8550 C.3     1  UNL1        0.0391
     18 C           3.1416   32.9195    5.8094 C.3     1  UNL1        0.0739
     19 C           6.9774   32.1469    3.2281 C.3     1  UNL1        0.0897
     20 N           5.5208   32.1204    3.1244 N.3     1  UNL1       -0.2691
     21 C           4.9522   33.4667    3.3309 C.3     1  UNL1        0.0897
     22 C           3.4056   33.4748    3.4179 C.3     1  UNL1        0.0897
     23 N           2.8443   32.5347    4.4147 N.3     1  UNL1       -0.2703
     24 C           3.3971   31.1968    4.0824 C.3     1  UNL1        0.0897
     25 C           4.9435   31.1405    4.0616 C.3     1  UNL1        0.0897
@<TRIPOS>BOND
     1    19    20    1
     2    20    21    1
     3    20    25    1
     4    21    22    1
     5    22    23    1
     6    23    18    1
     7    23    24    1
     8    18    17    1
     9    17    16    1
    10    16     1    1
    11     1     2    1
    12     1    15    1
    13     2     3   ar
    14     2     7   ar
    15     3     4   ar
    16     4     5   ar
    17     5     6   ar
    18     6     7   ar
    19     7     8    1
    20     8     9    1
    21     9    10   ar
    22     9    15   ar
    23    10    11   ar
    24    11    12   ar
    25    12    13    1
    26    12    14   ar
    27    14    15   ar
    28    24    25    1



#	Name:			CHEMBL741
#	Creating user name:	trannguyen
#	Creation time:		Wed Dec  7 14:36:25 2022


#	Modifying user name:	trannguyen
#	Modification time:	Wed Dec  7 14:36:25 2022

@<TRIPOS>MOLECULE
CHEMBL741
 20 21 0 0 0
SMALL
GASTEIGER

@<TRIPOS>ATOM
      1 N           2.9893   34.7775    5.2120 N.pl3   1  UNL1       -0.3262
      2 C           3.0960   33.7710    6.1544 C.ar    1  UNL1        0.2341
      3 N           2.8668   32.4976    5.7769 N.ar    1  UNL1       -0.1128
      4 N           2.9416   31.4964    6.6952 N.ar    1  UNL1       -0.1424
      5 C           3.2589   31.8104    7.9678 C.ar    1  UNL1        0.1348
      6 C           3.4790   33.1457    8.3099 C.ar    1  UNL1        0.1479
      7 N           3.7640   33.5571    9.6196 N.pl3   1  UNL1       -0.3413
      8 N           3.3805   34.1385    7.4093 N.ar    1  UNL1       -0.1967
      9 H           2.3910   34.4883    4.4503 H       1  UNL1        0.1452
     10 H           2.7674   35.6523    5.6672 H       1  UNL1        0.1452
     11 H           4.5747   33.0718    9.9927 H       1  UNL1        0.1438
     12 H           3.9206   34.5624    9.5901 H       1  UNL1        0.1438
     13 C           3.3090   30.6886    8.9072 C.ar    1  UNL1        0.0336
     14 C           4.5656   30.1648    9.2718 C.ar    1  UNL1        0.0025
     15 C           4.6741   29.0994   10.1651 C.ar    1  UNL1        0.0010
     16 C           3.5257   28.5425   10.7197 C.ar    1  UNL1        0.0122
     17 C           2.2676   29.0477   10.3807 C.ar    1  UNL1        0.0682
     18 CL          0.8923   28.2989   11.1177 Cl      1  UNL1       -0.0814
     19 C           2.1516   30.1168    9.4756 C.ar    1  UNL1        0.0698
     20 CL          0.5827   30.7380    9.0520 Cl      1  UNL1       -0.0813
@<TRIPOS>BOND
     1     1     2    1
     2     1     9    1
     3     1    10    1
     4     2     3   ar
     5     2     8   ar
     6     3     4   ar
     7     4     5   ar
     8     5    13    1
     9     5     6   ar
    10    13    14   ar
    11    13    19   ar
    12    14    15   ar
    13    15    16   ar
    14    16    17   ar
    15    17    18    1
    16    17    19   ar
    17    19    20    1
    18     6     7    1
    19     6     8   ar
    20     7    11    1
    21     7    12    1



#	Name:			CHEMBL742
#	Creating user name:	trannguyen
#	Creation time:		Wed Dec  7 14:36:25 2022


#	Modifying user name:	trannguyen
#	Modification time:	Wed Dec  7 14:36:25 2022

@<TRIPOS>MOLECULE
CHEMBL742
 17 18 0 0 0
SMALL
GASTEIGER

@<TRIPOS>ATOM
      1 C           2.5841   31.8826    9.0821 C.3     1  UNL1        0.1140
      2 C           3.8874   32.7145    8.8421 C.3     1  UNL1        0.0259
      3 C           3.6401   34.2086    8.5776 C.3     1  UNL1        0.0026
      4 C           2.8521   34.8635    9.7101 C.3     1  UNL1        0.0079
      5 C           1.5698   34.1058   10.0120 C.3     1  UNL1        0.0662
      6 C           1.9187   32.6530   10.2755 C.2     1  UNL1        0.1670
      7 O           1.7587   32.1785   11.4013 O.2     1  UNL1       -0.2944
      8 C           2.8260   30.4001    9.4540 C.ar    1  UNL1        0.0077
      9 C           4.1363   29.9022    9.6305 C.ar    1  UNL1       -0.0018
     10 C           4.3795   28.5703    9.9833 C.ar    1  UNL1       -0.0002
     11 C           3.3205   27.6934   10.1722 C.ar    1  UNL1        0.0008
     12 C           2.0175   28.1444    9.9899 C.ar    1  UNL1        0.0111
     13 C           1.7680   29.4754    9.6257 C.ar    1  UNL1        0.0553
     14 CL          0.1041   29.8827    9.3523 Cl      1  UNL1       -0.0825
     15 C           2.2193   31.4782    6.6524 C.3     1  UNL1        0.0864
     16 N           1.6803   32.0056    7.9002 N.3     1  UNL1       -0.2897
     17 H           0.8181   31.4965    8.1161 H       1  UNL1        0.1239
@<TRIPOS>BOND
     1    15    16    1
     2    16     1    1
     3    16    17    1
     4     1     8    1
     5     1     2    1
     6     1     6    1
     7     8     9   ar
     8     8    13   ar
     9     9    10   ar
    10    10    11   ar
    11    11    12   ar
    12    12    13   ar
    13    13    14    1
    14     2     3    1
    15     3     4    1
    16     4     5    1
    17     5     6    1
    18     6     7    2



#	Name:			CHEMBL744
#	Creating user name:	trannguyen
#	Creation time:		Wed Dec  7 14:36:25 2022


#	Modifying user name:	trannguyen
#	Modification time:	Wed Dec  7 14:36:25 2022

@<TRIPOS>MOLECULE
CHEMBL744
 17 18 0 0 0
SMALL
GASTEIGER

@<TRIPOS>ATOM
      1 N           1.9412   27.7141   12.0904 N.pl3   1  UNL1       -0.3375
      2 C           2.0675   28.5869   11.0833 C.ar    1  UNL1        0.1567
      3 N           3.1743   29.2536   10.8539 N.ar    1  UNL1       -0.2245
      4 C           3.0174   30.0655    9.7463 C.ar    1  UNL1        0.0894
      5 C           4.0028   30.9053    9.1957 C.ar    1  UNL1        0.0228
      6 C           3.6974   31.6841    8.0751 C.ar    1  UNL1        0.0388
      7 C           2.4264   31.6575    7.4991 C.ar    1  UNL1        0.1474
      8 C           1.4451   30.7986    8.0047 C.ar    1  UNL1        0.0452
      9 C           1.7615   30.0229    9.1396 C.ar    1  UNL1        0.0527
     10 S           0.7710   28.9139   10.0107 S.2     1  UNL1       -0.0519
     11 H           2.6455   27.7649   12.8182 H       1  UNL1        0.1442
     12 H           1.0102   27.4829   12.4179 H       1  UNL1        0.1442
     13 O           2.2841   32.5087    6.4419 O.3     1  UNL1       -0.4044
     14 C           2.2425   31.9744    5.1285 C.3     1  UNL1        0.5753
     15 F           2.5459   30.6598    5.0852 F       1  UNL1       -0.1328
     16 F           0.9864   32.1223    4.6500 F       1  UNL1       -0.1328
     17 F           3.0854   32.6546    4.3241 F       1  UNL1       -0.1328
@<TRIPOS>BOND
     1     1     2    1
     2     1    11    1
     3     1    12    1
     4     2     3   ar
     5     2    10   ar
     6     3     4   ar
     7     4     5   ar
     8     4     9   ar
     9     5     6   ar
    10     6     7   ar
    11     7    13    1
    12     7     8   ar
    13    13    14    1
    14    14    15    1
    15    14    16    1
    16    14    17    1
    17     8     9   ar
    18     9    10   ar



#	Name:			CHEMBL74667
#	Creating user name:	trannguyen
#	Creation time:		Wed Dec  7 14:36:25 2022


#	Modifying user name:	trannguyen
#	Modification time:	Wed Dec  7 14:36:25 2022

@<TRIPOS>MOLECULE
CHEMBL74667
 26 27 0 0 0
SMALL
GASTEIGER

@<TRIPOS>ATOM
      1 C           4.3148   32.9510    4.1195 C.ar    1  UNL1       -0.0222
      2 C           3.1104   33.0294    3.4097 C.ar    1  UNL1       -0.0043
      3 C           1.8845   32.8194    4.0491 C.ar    1  UNL1       -0.0003
      4 C           1.8744   32.3175    5.3301 C.ar    1  UNL1       -0.0000
      5 C           3.0892   32.0664    5.9671 C.ar    1  UNL1       -0.0006
      6 C           4.2962   32.4251    5.4019 C.ar    1  UNL1       -0.0043
      7 C           3.1654   31.4177    7.2891 C.2     1  UNL1       -0.0046
      8 C           2.0672   31.1766    8.0814 C.2     1  UNL1       -0.0268
      9 C           2.0450   30.4624    9.4000 C.3     1  UNL1        0.0188
     10 C           1.9315   31.4411   10.5912 C.3     1  UNL1        0.0044
     11 C           3.3591   29.6406    9.5038 C.3     1  UNL1        0.0065
     12 C           3.3673   28.6689   10.6797 C.3     1  UNL1        0.0296
     13 C           2.1545   27.7415   10.6476 C.3     1  UNL1        0.1105
     14 O           2.1499   26.9292   11.8154 O.3     1  UNL1       -0.3845
     15 C           0.8388   28.5125   10.5596 C.3     1  UNL1        0.0296
     16 C           0.8349   29.4894    9.3861 C.3     1  UNL1        0.0065
     17 H           2.0917   27.5169   12.5882 H       1  UNL1        0.2103
     18 C           5.6222   33.4386    3.5476 C.3     1  UNL1        0.0264
     19 C           6.7103   33.8460    4.5677 C.3     1  UNL1        0.0048
     20 C           7.8412   32.8611    4.9226 C.3     1  UNL1        0.0027
     21 C           7.5287   31.6710    5.8679 C.3     1  UNL1        0.0269
     22 C           8.9177   30.6032    7.7435 C.3     1  UNL1        0.0293
     23 C           8.0072   31.7466    7.3296 C.3     1  UNL1        0.0885
     24 C           6.8168   31.7496    8.2858 C.3     1  UNL1        0.0293
     25 O           8.8700   32.8655    7.4635 O.3     1  UNL1       -0.3867
     26 H           8.9735   33.0953    8.4010 H       1  UNL1        0.2102
@<TRIPOS>BOND
     1    22    23    1
     2    23    24    1
     3    23    25    1
     4    23    21    1
     5    25    26    1
     6    21    20    1
     7    20    19    1
     8    19    18    1
     9    18     1    1
    10     1     2   ar
    11     1     6   ar
    12     2     3   ar
    13     3     4   ar
    14     4     5   ar
    15     5     7    1
    16     5     6   ar
    17     7     8    2
    18     9    11    1
    19     9    16    1
    20     9    10    1
    21     9     8    1
    22    11    12    1
    23    12    13    1
    24    13    15    1
    25    13    14    1
    26    14    17    1
    27    15    16    1



#	Name:			CHEMBL748
#	Creating user name:	trannguyen
#	Creation time:		Wed Dec  7 14:36:25 2022


#	Modifying user name:	trannguyen
#	Modification time:	Wed Dec  7 14:36:25 2022

@<TRIPOS>MOLECULE
CHEMBL748
 11 11 0 0 0
SMALL
GASTEIGER

@<TRIPOS>ATOM
      1 C           1.5398   30.0377    9.1088 C.3     1  UNL1        0.1125
      2 N           2.9687   30.2238    9.4240 N.pl3   1  UNL1       -0.3005
      3 C           3.5677   31.3708    9.0245 C.3     1  UNL1        0.1175
      4 C           4.9347   31.5680    9.1910 C.2     1  UNL1       -0.0047
      5 C           5.7077   30.5603    9.7470 C.2     1  UNL1       -0.0016
      6 C           5.0940   29.3757   10.1309 C.2     1  UNL1        0.0159
      7 C           3.7141   29.2272    9.9643 C.2     1  UNL1        0.0708
      8 C           3.0965   27.9865   10.4590 C.2     1  UNL1        0.1543
      9 N           2.5693   27.8925   11.6403 N.2     1  UNL1       -0.0834
     10 O           2.1125   26.5818   11.8189 O.2     1  UNL1       -0.4087
     11 H           1.6713   26.6148   12.6890 H       1  UNL1        0.3278
@<TRIPOS>BOND
     1     1     2    1
     2     2     3    1
     3     2     7    1
     4     3     4    1
     5     4     5    2
     6     5     6    1
     7     6     7    2
     8     7     8    1
     9     8     9    2
    10     9    10    1
    11    10    11    1



#	Name:			CHEMBL75
#	Creating user name:	trannguyen
#	Creation time:		Wed Dec  7 14:36:25 2022


#	Modifying user name:	trannguyen
#	Modification time:	Wed Dec  7 14:36:25 2022

@<TRIPOS>MOLECULE
CHEMBL75
 36 40 0 0 0
SMALL
GASTEIGER

@<TRIPOS>ATOM
      1 C           6.0801   32.9009    3.2970 C.3     1  UNL1        0.1909
      2 C           6.9684   31.7482    3.6723 C.3     1  UNL1        0.1783
      3 O           6.5523   31.4370    4.9933 O.3     1  UNL1       -0.3267
      4 C           6.0705   32.6636    5.5793 C.3     1  UNL1        0.2296
      5 O           5.9036   33.6247    4.5107 O.3     1  UNL1       -0.3255
      6 C           4.7268   32.4139    6.2764 C.ar    1  UNL1        0.0409
      7 C           4.5801   32.8196    7.6243 C.ar    1  UNL1        0.0022
      8 C           3.3906   32.6181    8.3300 C.ar    1  UNL1        0.0113
      9 C           2.3190   31.9949    7.7070 C.ar    1  UNL1        0.0585
     10 CL          0.8435   31.7651    8.5596 Cl      1  UNL1       -0.0822
     11 C           2.4363   31.5531    6.3952 C.ar    1  UNL1        0.0226
     12 C           3.6286   31.7554    5.6838 C.ar    1  UNL1        0.0591
     13 CL          3.6415   31.1181    4.0750 Cl      1  UNL1       -0.0824
     14 C           6.6507   33.7704    2.1881 C.3     1  UNL1        0.2374
     15 O           7.6661   33.0890    1.4251 O.3     1  UNL1       -0.4727
     16 C           7.6029   33.9220   -2.7072 C.ar    1  UNL1        0.0481
     17 C           7.4544   34.9419   -1.7723 C.ar    1  UNL1        0.0176
     18 C           7.4717   34.6807   -0.4058 C.ar    1  UNL1        0.0382
     19 C           7.6479   33.3886    0.0831 C.ar    1  UNL1        0.1388
     20 C           7.7801   32.3445   -0.8328 C.ar    1  UNL1        0.0382
     21 C           7.7663   32.6162   -2.2134 C.ar    1  UNL1        0.0176
     22 C           8.5134   36.4597   -8.5471 C.3     1  UNL1        0.0948
     23 C           8.2294   35.0262   -8.1837 C.2     1  UNL1        0.2262
     24 O           8.2597   34.1324   -9.0503 O.2     1  UNL1       -0.2749
     25 N           7.9923   34.7669   -6.8492 N.am    1  UNL1       -0.2760
     26 C           7.7033   33.3918   -6.4104 C.3     1  UNL1        0.1148
     27 C           8.1971   33.1350   -4.9761 C.3     1  UNL1        0.1123
     28 N           7.6340   34.1681   -4.0765 N.pl3   1  UNL1       -0.3041
     29 C           8.0546   35.5286   -4.4607 C.3     1  UNL1        0.1123
     30 C           7.5810   35.8150   -5.8925 C.3     1  UNL1        0.1148
     31 C           7.1566   33.2093    6.5362 C.3     1  UNL1        0.1682
     32 N           8.1699   32.2437    6.9159 N.ar    1  UNL1       -0.3025
     33 C           7.9960   31.1705    7.7458 C.ar    1  UNL1        0.0982
     34 C           9.2349   30.5800    7.8280 C.ar    1  UNL1        0.1193
     35 N          10.1406   31.2410    7.0402 N.ar    1  UNL1       -0.2223
     36 C           9.4710   32.2338    6.4972 C.ar    1  UNL1        0.1788
@<TRIPOS>BOND
     1    22    23    1
     2    23    24    2
     3    23    25   am
     4    25    26    1
     5    25    30    1
     6    26    27    1
     7    27    28    1
     8    28    16    1
     9    28    29    1
    10    16    17   ar
    11    16    21   ar
    12    17    18   ar
    13    18    19   ar
    14    19    15    1
    15    19    20   ar
    16    15    14    1
    17    14     1    1
    18     1     2    1
    19     1     5    1
    20     2     3    1
    21     3     4    1
    22     4    31    1
    23     4     6    1
    24     4     5    1
    25    31    32    1
    26    32    33   ar
    27    32    36   ar
    28    33    34   ar
    29    34    35   ar
    30    35    36   ar
    31     6     7   ar
    32     6    12   ar
    33     7     8   ar
    34     8     9   ar
    35     9    10    1
    36     9    11   ar
    37    11    12   ar
    38    12    13    1
    39    20    21   ar
    40    29    30    1



#	Name:			CHEMBL7568
#	Creating user name:	trannguyen
#	Creation time:		Wed Dec  7 14:36:25 2022


#	Modifying user name:	trannguyen
#	Modification time:	Wed Dec  7 14:36:25 2022

@<TRIPOS>MOLECULE
CHEMBL7568
 29 31 0 0 0
SMALL
GASTEIGER

@<TRIPOS>ATOM
      1 C           3.7359   33.3726    9.2221 C.ar    1  UNL1        0.0475
      2 C           3.5408   31.9640    9.5054 C.ar    1  UNL1        0.0309
      3 C           4.4996   30.9127    9.3980 C.ar    1  UNL1        0.0036
      4 C           4.2030   29.5718    9.6348 C.ar    1  UNL1        0.0115
      5 C           2.9210   29.2257    9.9797 C.ar    1  UNL1        0.0592
      6 CL          2.5216   27.5736   10.2377 Cl      1  UNL1       -0.0822
      7 C           1.9660   30.2176   10.1476 C.ar    1  UNL1        0.0305
      8 C           2.2692   31.5540    9.9515 C.ar    1  UNL1        0.0833
      9 N           1.2835   32.4014   10.2465 N.ar    1  UNL1       -0.2452
     10 C           1.4822   33.7086   10.1329 C.ar    1  UNL1        0.0826
     11 C           0.4586   34.5071   10.6160 C.ar    1  UNL1        0.0222
     12 C           0.5274   35.8951   10.5719 C.ar    1  UNL1        0.0384
     13 C           1.6233   36.4958    9.9713 C.ar    1  UNL1        0.1389
     14 C           2.6516   35.6974    9.4513 C.ar    1  UNL1        0.0396
     15 C           2.6478   34.2728    9.5764 C.ar    1  UNL1        0.0338
     16 N           4.9410   33.9470    8.7453 N.pl3   1  UNL1       -0.3340
     17 H           4.8435   34.4135    7.8532 H       1  UNL1        0.1468
     18 C           6.3296   33.5682    9.0512 C.3     1  UNL1        0.0691
     19 C           6.9982   34.7030    9.8623 C.3     1  UNL1        0.0212
     20 C           7.1758   33.3221    7.7822 C.3     1  UNL1        0.0209
     21 C           6.7749   32.0906    6.9499 C.3     1  UNL1        0.0190
     22 C           6.3004   32.5298    5.5459 C.3     1  UNL1        0.0721
     23 N           4.9917   33.2035    5.4784 N.3     1  UNL1       -0.2727
     24 C           5.7955   33.5789    3.0975 C.3     1  UNL1        0.0188
     25 C           4.7899   33.9126    4.1967 C.3     1  UNL1        0.0721
     26 C           3.8327   32.3342    5.7609 C.3     1  UNL1        0.0721
     27 C           3.4039   31.3664    4.6571 C.3     1  UNL1        0.0188
     28 O           1.5726   37.8640    9.9306 O.3     1  UNL1       -0.4714
     29 C           0.8426   38.4794   10.9829 C.3     1  UNL1        0.2525
@<TRIPOS>BOND
     1    24    25    1
     2    25    23    1
     3    23    26    1
     4    23    22    1
     5    26    27    1
     6    22    21    1
     7    21    20    1
     8    20    18    1
     9    18    19    1
    10    18    16    1
    11    16     1    1
    12    16    17    1
    13     1     2   ar
    14     1    15   ar
    15     2     3   ar
    16     2     8   ar
    17     3     4   ar
    18     4     5   ar
    19     5     6    1
    20     5     7   ar
    21     7     8   ar
    22     8     9   ar
    23     9    10   ar
    24    10    11   ar
    25    10    15   ar
    26    11    12   ar
    27    12    13   ar
    28    13    28    1
    29    13    14   ar
    30    28    29    1
    31    14    15   ar



#	Name:			CHEMBL757
#	Creating user name:	trannguyen
#	Creation time:		Wed Dec  7 14:36:25 2022


#	Modifying user name:	trannguyen
#	Modification time:	Wed Dec  7 14:36:25 2022

@<TRIPOS>MOLECULE
CHEMBL757
 21 24 0 0 0
SMALL
GASTEIGER

@<TRIPOS>ATOM
      1 C           5.8798   31.8155    9.7834 C.3     1  UNL1        0.0024
      2 C           7.3226   32.3064    9.8099 C.3     1  UNL1        0.0247
      3 C           8.2349   31.1197    9.3024 C.3     1  UNL1        0.0023
      4 C           8.3538   30.9980    7.7401 C.3     1  UNL1        0.0004
      5 C           8.4981   32.3303    6.9231 C.3     1  UNL1        0.0037
      6 C           8.1890   32.2290    5.3969 C.3     1  UNL1        0.0188
      7 C           8.2498   33.5398    4.5697 C.3     1  UNL1        0.0121
      8 C           8.2272   33.1846    3.0720 C.3     1  UNL1        0.0695
      9 C           7.3129   31.9937    2.7646 C.2     1  UNL1        0.1725
     10 O           7.2353   31.4994    1.6435 O.2     1  UNL1       -0.2914
     11 C           6.4052   31.5219    3.8568 C.2     1  UNL1        0.0290
     12 C           6.7706   31.7869    5.1150 C.2     1  UNL1       -0.0417
     13 C           5.7687   32.0111    6.2122 C.3     1  UNL1        0.0221
     14 C           6.1315   33.2680    7.0533 C.3     1  UNL1        0.0044
     15 C           7.6257   33.4222    7.5080 C.3     1  UNL1        0.0007
     16 C           7.7869   33.5405    9.0190 C.3     1  UNL1        0.0023
     17 C           9.2206   33.7608    9.6706 C.3     1  UNL1        0.0026
     18 C           9.0602   33.2754   11.1492 C.3     1  UNL1        0.0292
     19 C           7.5765   32.9708   11.2000 C.3     1  UNL1        0.1104
     20 O           7.0668   32.3059   12.3292 O.3     1  UNL1       -0.3845
     21 H           6.1621   32.6090   12.4814 H       1  UNL1        0.2103
@<TRIPOS>BOND
     1     2     3    1
     2     2    16    1
     3     2    19    1
     4     2     1    1
     5     3     4    1
     6     4     5    1
     7     5     6    1
     8     5    15    1
     9     6     7    1
    10     6    12    1
    11     7     8    1
    12     8     9    1
    13     9    11    1
    14     9    10    2
    15    11    12    2
    16    12    13    1
    17    13    14    1
    18    14    15    1
    19    15    16    1
    20    16    17    1
    21    17    18    1
    22    18    19    1
    23    19    20    1
    24    20    21    1



#	Name:			CHEMBL75880
#	Creating user name:	trannguyen
#	Creation time:		Wed Dec  7 14:36:25 2022


#	Modifying user name:	trannguyen
#	Modification time:	Wed Dec  7 14:36:25 2022

@<TRIPOS>MOLECULE
CHEMBL75880
 21 23 0 0 0
SMALL
GASTEIGER

@<TRIPOS>ATOM
      1 C           4.4739   31.2922    8.2885 C.3     1  UNL1        0.0013
      2 C           2.7518   28.0334   10.2936 C.3     1  UNL1        0.0000
      3 C           1.9202   29.1011    9.6157 C.3     1  UNL1        0.0000
      4 C           2.4489   30.5083    9.8539 C.3     1  UNL1        0.0000
      5 C           3.9640   30.7577    9.6896 C.3     1  UNL1        0.0000
      6 C           4.7696   29.5555   10.2445 C.3     1  UNL1        0.0000
      7 C           4.2184   28.1667    9.9215 C.3     1  UNL1        0.0000
      8 C           5.6780   32.3193    8.3517 C.3     1  UNL1        0.0000
      9 C           5.9817   33.0082    9.6954 C.3     1  UNL1        0.0000
     10 C           7.0368   32.3319   10.5799 C.3     1  UNL1        0.0000
     11 C           8.3131   31.9986    9.8294 C.3     1  UNL1        0.0000
     12 C           8.0213   31.1674    8.5901 C.3     1  UNL1        0.0000
     13 C           6.9824   31.8179    7.6793 C.3     1  UNL1        0.0000
     14 C           3.2828   31.7597    7.3984 C.3     1  UNL1        0.0157
     15 C           3.5016   32.7998    6.2561 C.3     1  UNL1        0.0540
     16 C           4.3376   32.3696    5.0538 C.3     1  UNL1        0.0158
     17 C           3.6565   31.2993    4.1986 C.3     1  UNL1        0.0028
     18 C           2.2411   31.7223    3.8102 C.3     1  UNL1        0.0171
     19 C           1.4489   32.2798    4.9820 C.3     1  UNL1        0.0685
     20 N           2.1940   33.2834    5.7541 N.3     1  UNL1       -0.2985
     21 H           1.6224   33.5945    6.5320 H       1  UNL1        0.1232
@<TRIPOS>BOND
     1     2     3    1
     2     2     7    1
     3     3     4    1
     4     4     5    1
     5     5     1    1
     6     5     6    1
     7     1    14    1
     8     1     8    1
     9    14    15    1
    10    15    16    1
    11    15    20    1
    12    16    17    1
    13    17    18    1
    14    18    19    1
    15    19    20    1
    16    20    21    1
    17     8     9    1
    18     8    13    1
    19     9    10    1
    20    10    11    1
    21    11    12    1
    22    12    13    1
    23     6     7    1



#	Name:			CHEMBL762
#	Creating user name:	trannguyen
#	Creation time:		Wed Dec  7 14:36:25 2022


#	Modifying user name:	trannguyen
#	Modification time:	Wed Dec  7 14:36:25 2022

@<TRIPOS>MOLECULE
CHEMBL762
 21 22 0 0 0
SMALL
GASTEIGER

@<TRIPOS>ATOM
      1 C           5.4979   31.9590    8.9507 C.3     1  UNL1        0.0307
      2 C           4.2702   31.8822    8.0767 C.ar    1  UNL1       -0.0257
      3 C           4.4321   32.0770    6.6914 C.ar    1  UNL1       -0.0059
      4 C           3.3638   32.0156    5.7791 C.ar    1  UNL1        0.0102
      5 C           2.0939   31.7668    6.3322 C.ar    1  UNL1        0.1253
      6 O           1.0273   31.6604    5.4784 O.3     1  UNL1       -0.5062
      7 C           1.8763   31.6104    7.7218 C.ar    1  UNL1        0.0078
      8 C           0.4788   31.4306    8.2685 C.3     1  UNL1        0.0339
      9 C           2.9874   31.6190    8.6014 C.ar    1  UNL1       -0.0152
     10 H           0.4965   30.9024    5.7740 H       1  UNL1        0.2922
     11 C           3.5969   32.2032    4.2601 C.3     1  UNL1        0.0218
     12 C           5.1025   32.1261    3.9213 C.3     1  UNL1        0.0045
     13 C           2.9002   31.1186    3.3963 C.3     1  UNL1        0.0045
     14 C           3.0362   33.5585    3.7716 C.3     1  UNL1        0.0045
     15 C           2.8032   31.3588   10.0908 C.3     1  UNL1        0.1423
     16 C           2.5635   29.9104   10.4576 C.2     1  UNL1        0.2964
     17 N           3.4099   28.9790   10.0868 N.2     1  UNL1       -0.0649
     18 C           2.8334   27.7231   10.6436 C.3     1  UNL1        0.3130
     19 C           1.4169   28.0612   11.1072 C.3     1  UNL1        0.2574
     20 N           1.4921   29.4943   11.2083 N.pl3   1  UNL1       -0.2187
     21 H           0.6268   30.0282   11.1201 H       1  UNL1        0.2920
@<TRIPOS>BOND
     1     1     2    1
     2     2     3   ar
     3     2     9   ar
     4     3     4   ar
     5     4    11    1
     6     4     5   ar
     7    11    12    1
     8    11    13    1
     9    11    14    1
    10     5     6    1
    11     5     7   ar
    12     6    10    1
    13     7     8    1
    14     7     9   ar
    15     9    15    1
    16    15    16    1
    17    16    17    2
    18    16    20    1
    19    17    18    1
    20    18    19    1
    21    19    20    1
    22    20    21    1



#	Name:			CHEMBL76904
#	Creating user name:	trannguyen
#	Creation time:		Wed Dec  7 14:36:25 2022


#	Modifying user name:	trannguyen
#	Modification time:	Wed Dec  7 14:36:25 2022

@<TRIPOS>MOLECULE
CHEMBL76904
 16 16 0 0 0
SMALL
GASTEIGER

@<TRIPOS>ATOM
      1 C           2.9344   30.2078    9.9585 C.ar    1  UNL1        0.0046
      2 C           3.9688   29.2619    9.8700 C.ar    1  UNL1        0.0034
      3 C           3.7248   27.9101   10.1375 C.ar    1  UNL1        0.0398
      4 C           2.4410   27.5103   10.4845 C.ar    1  UNL1        0.1675
      5 O           2.1368   26.2057   10.7551 O.3     1  UNL1       -0.5029
      6 C           1.4114   28.4443   10.5610 C.ar    1  UNL1        0.1675
      7 O           0.1494   28.0420   10.8925 O.3     1  UNL1       -0.5029
      8 C           1.6434   29.7884   10.2993 C.ar    1  UNL1        0.0398
      9 H           2.9512   25.6791   10.6787 H       1  UNL1        0.2923
     10 H           0.2285   27.0792   11.0464 H       1  UNL1        0.2923
     11 C           2.8728   32.2635    8.5196 C.2     1  UNL1        0.1365
     12 C           3.2220   31.6135    9.6481 C.2     1  UNL1        0.0208
     13 N           3.4982   34.7605    8.2887 N.1     1  UNL1       -0.1901
     14 C           3.2236   33.6364    8.3781 C.1     1  UNL1        0.1108
     15 C           2.1408   31.6447    7.4660 C.1     1  UNL1        0.1108
     16 N           1.5469   31.1512    6.6000 N.1     1  UNL1       -0.1901
@<TRIPOS>BOND
     1    13    14    3
     2    14    11    1
     3    11    15    1
     4    11    12    2
     5    15    16    3
     6    12     1    1
     7     1     2   ar
     8     1     8   ar
     9     2     3   ar
    10     3     4   ar
    11     4     5    1
    12     4     6   ar
    13     5     9    1
    14     6     7    1
    15     6     8   ar
    16     7    10    1



#	Name:			CHEMBL79
#	Creating user name:	trannguyen
#	Creation time:		Wed Dec  7 14:36:25 2022


#	Modifying user name:	trannguyen
#	Modification time:	Wed Dec  7 14:36:25 2022

@<TRIPOS>MOLECULE
CHEMBL79
 18 18 0 0 0
SMALL
GASTEIGER

@<TRIPOS>ATOM
      1 C           3.3276   32.2698    8.9961 C.2     1  UNL1        0.2425
      2 O           3.1863   32.6529   10.1639 O.2     1  UNL1       -0.2733
      3 N           3.0233   31.0007    8.5210 N.am    1  UNL1       -0.2833
      4 H           3.6960   30.7288    7.8048 H       1  UNL1        0.1549
      5 C           2.6079   29.9808    9.4158 C.ar    1  UNL1        0.0423
      6 C           1.2283   29.7610    9.6307 C.ar    1  UNL1       -0.0087
      7 C           0.1652   30.5416    8.9074 C.3     1  UNL1        0.0323
      8 C           0.8209   28.7415   10.5094 C.ar    1  UNL1       -0.0031
      9 C           1.7584   27.9433   11.1554 C.ar    1  UNL1       -0.0006
     10 C           3.1146   28.1390   10.9134 C.ar    1  UNL1       -0.0031
     11 C           3.5556   29.1340   10.0230 C.ar    1  UNL1       -0.0087
     12 C           5.0357   29.3009    9.8305 C.3     1  UNL1        0.0323
     13 C           3.8238   33.2229    7.8975 C.3     1  UNL1        0.1587
     14 N           3.9164   32.6054    6.5402 N.3     1  UNL1       -0.2650
     15 C           1.7213   32.2884    5.2890 C.3     1  UNL1        0.0188
     16 C           2.8957   33.2017    5.6373 C.3     1  UNL1        0.0726
     17 C           5.2683   32.8080    5.9635 C.3     1  UNL1        0.0726
     18 C           5.4949   32.0521    4.6523 C.3     1  UNL1        0.0188
@<TRIPOS>BOND
     1    15    16    1
     2    16    14    1
     3    14    17    1
     4    14    13    1
     5    17    18    1
     6    13     1    1
     7     1     2    2
     8     1     3   am
     9     3     5    1
    10     3     4    1
    11     5     6   ar
    12     5    11   ar
    13     6     7    1
    14     6     8   ar
    15     8     9   ar
    16     9    10   ar
    17    10    11   ar
    18    11    12    1



#	Name:			CHEMBL8
#	Creating user name:	trannguyen
#	Creation time:		Wed Dec  7 14:36:25 2022


#	Modifying user name:	trannguyen
#	Modification time:	Wed Dec  7 14:36:25 2022

@<TRIPOS>MOLECULE
CHEMBL8
 26 29 0 0 0
SMALL
GASTEIGER

@<TRIPOS>ATOM
      1 C           2.3932   32.0624    9.0047 C.ar    1  UNL1        0.1314
      2 C           3.6066   32.6297    9.0778 C.ar    1  UNL1        0.0855
      3 N           4.4796   32.8223    8.0219 N.ar    1  UNL1       -0.3276
      4 C           4.1466   32.3118    6.7361 C.ar    1  UNL1        0.0643
      5 C           5.0112   32.4001    5.6330 C.ar    1  UNL1        0.0341
      6 C           4.6644   31.9144    4.3557 C.ar    1  UNL1        0.0772
      7 C           3.4065   31.3073    4.2179 C.ar    1  UNL1        0.1535
      8 F           3.0180   30.7888    3.0435 F       1  UNL1       -0.2029
      9 C           2.5274   31.1941    5.2903 C.ar    1  UNL1        0.0355
     10 C           2.8963   31.7006    6.5382 C.ar    1  UNL1        0.0573
     11 C           1.9527   31.5865    7.6759 C.ar    1  UNL1        0.2047
     12 O           0.8341   31.0980    7.5384 O.2     1  UNL1       -0.2862
     13 N           5.5958   32.0955    3.3207 N.pl3   1  UNL1       -0.3029
     14 C           6.7672   31.1937    3.2826 C.3     1  UNL1        0.1079
     15 C           7.4965   31.3648    1.9288 C.3     1  UNL1        0.0903
     16 N           7.9258   32.7554    1.6730 N.3     1  UNL1       -0.2946
     17 C           6.7687   33.6632    1.8028 C.3     1  UNL1        0.0903
     18 C           5.9988   33.5095    3.1370 C.3     1  UNL1        0.1079
     19 H           8.2933   32.8188    0.7244 H       1  UNL1        0.1233
     20 O           1.9545   31.3264   11.2253 O.2     1  UNL1       -0.2449
     21 C           1.5811   31.9379   10.2305 C.2     1  UNL1        0.3427
     22 O           0.3785   32.5452   10.1730 O.3     1  UNL1       -0.4770
     23 H           0.2035   33.0149    9.3196 H       1  UNL1        0.2954
     24 C           5.8001   33.4139    8.3117 C.3     1  UNL1        0.0856
     25 C           6.3079   33.5660    9.7246 C.3     1  UNL1        0.0245
     26 C           6.9519   32.5736    8.8113 C.3     1  UNL1        0.0245
@<TRIPOS>BOND
     1    20    21    2
     2    21    22    1
     3    21     1    1
     4    22    23    1
     5     1     2   ar
     6     1    11   ar
     7     2     3   ar
     8     3    24    1
     9     3     4   ar
    10    24    25    1
    11    24    26    1
    12    25    26    1
    13     4     5   ar
    14     4    10   ar
    15     5     6   ar
    16     6    13    1
    17     6     7   ar
    18    13    14    1
    19    13    18    1
    20    14    15    1
    21    15    16    1
    22    16    17    1
    23    16    19    1
    24    17    18    1
    25     7     8    1
    26     7     9   ar
    27     9    10   ar
    28    10    11   ar
    29    11    12    2



#	Name:			CHEMBL803
#	Creating user name:	trannguyen
#	Creation time:		Wed Dec  7 14:36:25 2022


#	Modifying user name:	trannguyen
#	Modification time:	Wed Dec  7 14:36:25 2022

@<TRIPOS>MOLECULE
CHEMBL803
 22 23 0 0 0
SMALL
GASTEIGER

@<TRIPOS>ATOM
      1 C1*         2.0419   31.2730   10.1900 C.3     1    C1        0.2383
      2 O4*         2.8643   30.2033   10.7053 O.3     1    C1       -0.3308
      3 C4*         2.1074   28.9717   10.6962 C.3     1    C1        0.1757
      4 C3*         0.8851   29.2186    9.8260 C.3     1    C1        0.1713
      5 O3*        -0.2307   28.4169   10.1998 O.3     1    C1       -0.3794
      6 C2*         0.6167   30.6910   10.0591 C.3     1    C1        0.1895
      7 O2*        -0.2367   31.1914    9.0361 O.3     1    C1       -0.3779
      8 H3*        -0.9900   28.7711    9.6953 H       1    C1        0.2105
      9 H2*        -0.1954   32.1725    9.0795 H       1    C1        0.2106
     10 N4          4.5822   33.5001    5.8150 N.pl3   1    C1       -0.3425
     11 C4          3.9511   32.9216    6.8822 C.ar    1    C1        0.1316
     12 C5          3.2847   31.6185    6.7128 C.ar    1    C1        0.0528
     13 C6          2.6479   31.1469    7.7833 C.ar    1    C1        0.0849
     14 N1          2.6389   31.8379    8.9765 N.ar    1    C1       -0.2536
     15 C2          3.3681   33.0261    9.1168 C.ar    1    C1        0.3530
     16 O2          3.4471   33.5819   10.2105 O.2     1    C1       -0.2443
     17 N3          3.9808   33.5622    8.0069 N.ar    1    C1       -0.1777
     18 H41         5.0771   32.8771    5.1885 H       1    C1        0.1437
     19 H42         5.1399   34.3031    6.0911 H       1    C1        0.1437
     20 C5*         2.9616   27.8182   10.1577 C.3     1    C1        0.1693
     21 O5*         2.2942   26.5701   10.3397 O.3     1    C1       -0.3794
     22 H5*         2.8617   25.8805    9.9552 H       1    C1        0.2105
@<TRIPOS>BOND
     1    10    11    1
     2    10    18    1
     3    10    19    1
     4    11    12   ar
     5    11    17   ar
     6    12    13   ar
     7    13    14   ar
     8    14    15   ar
     9     1     2    1
    10     1     6    1
    11     1    14    1
    12     2     3    1
    13     3    20    1
    14     3     4    1
    15    20    21    1
    16    21    22    1
    17     4     6    1
    18     4     5    1
    19     5     8    1
    20     6     7    1
    21     7     9    1
    22    15    16    2
    23    15    17   ar



#	Name:			CHEMBL808
#	Creating user name:	trannguyen
#	Creation time:		Wed Dec  7 14:36:25 2022


#	Modifying user name:	trannguyen
#	Modification time:	Wed Dec  7 14:36:25 2022

@<TRIPOS>MOLECULE
CHEMBL808
 24 26 0 0 0
SMALL
GASTEIGER

@<TRIPOS>ATOM
      1 C           2.9299   31.4397    9.5149 C.3     1  UNL1        0.1612
      2 C           2.9620   31.7218    8.0106 C.ar    1  UNL1        0.0171
      3 C           1.9460   31.2043    7.1768 C.ar    1  UNL1       -0.0002
      4 C           1.9415   31.4315    5.7994 C.ar    1  UNL1        0.0112
      5 C           2.9036   32.2583    5.2376 C.ar    1  UNL1        0.0585
      6 CL          2.8671   32.5817    3.5492 Cl      1  UNL1       -0.0822
      7 C           3.9013   32.8110    6.0333 C.ar    1  UNL1        0.0225
      8 C           3.9613   32.5009    7.3992 C.ar    1  UNL1        0.0568
      9 CL          5.3430   33.0696    8.2673 Cl      1  UNL1       -0.0825
     10 O           2.6603   32.6578   10.2257 O.3     1  UNL1       -0.3451
     11 C           1.2929   32.8868   10.5856 C.3     1  UNL1        0.1690
     12 CL          0.4833   38.8558   10.5441 Cl      1  UNL1       -0.0822
     13 C           0.6761   37.1515   10.3983 C.ar    1  UNL1        0.0577
     14 C           1.9304   36.6186   10.1159 C.ar    1  UNL1        0.0111
     15 C           2.1074   35.2321   10.1014 C.ar    1  UNL1       -0.0010
     16 C           1.0377   34.3677   10.3897 C.ar    1  UNL1        0.0073
     17 C          -0.2380   34.9202   10.5847 C.ar    1  UNL1       -0.0010
     18 C          -0.4139   36.3092   10.6066 C.ar    1  UNL1        0.0111
     19 C           1.7739   30.4706    9.8444 C.3     1  UNL1        0.1416
     20 N           2.2107   29.1845   10.3362 N.ar    1  UNL1       -0.3050
     21 C           3.2968   28.4749    9.9032 C.ar    1  UNL1        0.0981
     22 C           3.2085   27.2660   10.5399 C.ar    1  UNL1        0.1193
     23 N           2.1118   27.2344   11.3718 N.ar    1  UNL1       -0.2223
     24 C           1.5404   28.3968   11.2309 C.ar    1  UNL1        0.1787
@<TRIPOS>BOND
     1    12    13    1
     2    13    14   ar
     3    13    18   ar
     4    14    15   ar
     5    15    16   ar
     6    16    11    1
     7    16    17   ar
     8    11    10    1
     9    10     1    1
    10     1    19    1
    11     1     2    1
    12    19    20    1
    13    20    21   ar
    14    20    24   ar
    15    21    22   ar
    16    22    23   ar
    17    23    24   ar
    18     2     3   ar
    19     2     8   ar
    20     3     4   ar
    21     4     5   ar
    22     5     6    1
    23     5     7   ar
    24     7     8   ar
    25     8     9    1
    26    17    18   ar



#	Name:			CHEMBL809
#	Creating user name:	trannguyen
#	Creation time:		Wed Dec  7 14:36:25 2022


#	Modifying user name:	trannguyen
#	Modification time:	Wed Dec  7 14:36:25 2022

@<TRIPOS>MOLECULE
CHEMBL809
 21 23 0 0 0
SMALL
GASTEIGER

@<TRIPOS>ATOM
      1 C           1.7048   31.8260    9.3472 C.3     1  UNL1        0.0766
      2 C           2.6220   32.6983    8.4613 C.3     1  UNL1        0.0209
      3 C           3.5990   31.9012    7.6124 C.3     1  UNL1        0.0104
      4 C           4.4730   30.9717    8.4643 C.3     1  UNL1        0.0444
      5 C           3.6183   30.0992    9.3634 C.ar    1  UNL1       -0.0211
      6 C           4.1431   28.8641    9.7906 C.ar    1  UNL1       -0.0042
      7 C           3.3946   28.0056   10.5871 C.ar    1  UNL1       -0.0003
      8 C           2.1059   28.3670   10.9638 C.ar    1  UNL1       -0.0003
      9 C           1.5779   29.5944   10.5563 C.ar    1  UNL1       -0.0033
     10 C           2.3274   30.4949    9.7733 C.ar    1  UNL1       -0.0117
     11 C           5.6005   31.6980    9.1946 C.ar    1  UNL1       -0.0175
     12 C           6.8741   31.1095    9.2467 C.ar    1  UNL1       -0.0030
     13 C           7.9259   31.7356    9.9210 C.ar    1  UNL1        0.0119
     14 C           7.7255   32.9666   10.5496 C.ar    1  UNL1        0.0682
     15 CL          9.0731   33.6832   11.3601 Cl      1  UNL1       -0.0814
     16 C           6.4666   33.5708   10.5036 C.ar    1  UNL1        0.0679
     17 CL          6.1431   35.0904   11.2615 Cl      1  UNL1       -0.0814
     18 C           5.4140   32.9399    9.8284 C.ar    1  UNL1        0.0083
     19 C           1.8001   33.9887   10.5089 C.3     1  UNL1        0.0861
     20 N           1.3011   32.6191   10.5254 N.3     1  UNL1       -0.2940
     21 H           0.2858   32.6474   10.5882 H       1  UNL1        0.1235
@<TRIPOS>BOND
     1    19    20    1
     2    20    21    1
     3     1     2    1
     4     1    10    1
     5     1    20    1
     6     2     3    1
     7     3     4    1
     8     4    11    1
     9     4     5    1
    10    11    12   ar
    11    11    18   ar
    12    12    13   ar
    13    13    14   ar
    14    14    15    1
    15    14    16   ar
    16    16    17    1
    17    16    18   ar
    18     5     6   ar
    19     5    10   ar
    20     6     7   ar
    21     7     8   ar
    22     8     9   ar
    23     9    10   ar



#	Name:			CHEMBL817
#	Creating user name:	trannguyen
#	Creation time:		Wed Dec  7 14:36:25 2022


#	Modifying user name:	trannguyen
#	Modification time:	Wed Dec  7 14:36:25 2022

@<TRIPOS>MOLECULE
CHEMBL817
 23 24 0 0 0
SMALL
GASTEIGER

@<TRIPOS>ATOM
      1 N           5.8322   32.2665    7.9755 N.am    1  UNL1       -0.1683
      2 C           6.3765   33.3115    7.2426 C.2     1  UNL1        0.3328
      3 O           7.3188   33.9969    7.5972 O.2     1  UNL1       -0.2499
      4 N           5.7505   33.5210    6.0299 N.am    1  UNL1       -0.2296
      5 H           5.0365   31.7995    7.5578 H       1  UNL1        0.1782
      6 H           6.1448   34.2519    5.4441 H       1  UNL1        0.1709
      7 N           4.6544   32.7306    5.5913 N.3     1  UNL1       -0.2047
      8 C           3.3936   33.4333    5.8810 C.3     1  UNL1        0.0919
      9 C           2.1278   32.6172    5.6146 C.3     1  UNL1        0.0191
     10 C           1.8345   32.4275    4.1327 C.3     1  UNL1        0.0015
     11 C           2.5762   31.2669    3.4821 C.3     1  UNL1        0.0015
     12 C           4.0537   31.0995    3.8261 C.3     1  UNL1        0.0191
     13 C           4.8139   32.3786    4.1699 C.3     1  UNL1        0.0919
     14 S           6.2782   31.7709    9.4791 S.O2    1  UNL1        0.0768
     15 O           5.9737   32.8730   10.3741 O.2     1  UNL1       -0.1498
     16 O           7.5901   31.1724    9.4694 O.2     1  UNL1       -0.1498
     17 C           2.2150   27.3224   10.2006 C.3     1  UNL1        0.0310
     18 C           3.2108   28.4419   10.1063 C.ar    1  UNL1       -0.0218
     19 C           2.8035   29.7193    9.6971 C.ar    1  UNL1       -0.0029
     20 C           3.7347   30.7472    9.5438 C.ar    1  UNL1        0.0199
     21 C           5.0844   30.4925    9.7904 C.ar    1  UNL1        0.1253
     22 C           5.5079   29.2242   10.2000 C.ar    1  UNL1        0.0199
     23 C           4.5689   28.2026   10.3600 C.ar    1  UNL1       -0.0029
@<TRIPOS>BOND
     1    17    18    1
     2    18    19   ar
     3    18    23   ar
     4    19    20   ar
     5    20    21   ar
     6    21    14    1
     7    21    22   ar
     8    14    15    2
     9    14    16    2
    10    14     1    1
    11     1     2   am
    12     1     5    1
    13     2     3    2
    14     2     4   am
    15     4     7    1
    16     4     6    1
    17     7     8    1
    18     7    13    1
    19     8     9    1
    20     9    10    1
    21    10    11    1
    22    11    12    1
    23    12    13    1
    24    22    23   ar



#	Name:			CHEMBL81977
#	Creating user name:	trannguyen
#	Creation time:		Wed Dec  7 14:36:25 2022


#	Modifying user name:	trannguyen
#	Modification time:	Wed Dec  7 14:36:25 2022

@<TRIPOS>MOLECULE
CHEMBL81977
 14 14 0 0 0
SMALL
GASTEIGER

@<TRIPOS>ATOM
      1 C           1.7764   29.4159   10.1131 C.ar    1  UNL1        0.0543
      2 C           3.1591   29.3106   10.2970 C.ar    1  UNL1        0.0046
      3 C           4.0207   30.1410    9.5834 C.ar    1  UNL1        0.0014
      4 C           3.5001   31.0958    8.7077 C.ar    1  UNL1        0.0141
      5 C           2.1192   31.2687    8.5756 C.ar    1  UNL1        0.0417
      6 N           1.6103   32.1528    7.6153 N.pl3   1  UNL1       -0.3570
      7 C           1.2621   30.3897    9.2450 C.ar    1  UNL1        0.0186
      8 H           2.2296   32.9322    7.4122 H       1  UNL1        0.1424
      9 H           0.6620   32.4641    7.8026 H       1  UNL1        0.1424
     10 N          -0.4316   28.4630   10.5308 N.am    1  UNL1       -0.3253
     11 C           0.8947   28.4835   10.8630 C.2     1  UNL1        0.2428
     12 O           1.3361   27.7308   11.7220 O.2     1  UNL1       -0.2704
     13 H          -0.9904   27.7459   10.9755 H       1  UNL1        0.1453
     14 H          -0.7825   28.8668    9.6746 H       1  UNL1        0.1453
@<TRIPOS>BOND
     1    10    11   am
     2    10    13    1
     3    10    14    1
     4    11    12    2
     5    11     1    1
     6     1     2   ar
     7     1     7   ar
     8     2     3   ar
     9     3     4   ar
    10     4     5   ar
    11     5     6    1
    12     5     7   ar
    13     6     8    1
    14     6     9    1



#	Name:			CHEMBL820
#	Creating user name:	trannguyen
#	Creation time:		Wed Dec  7 14:36:25 2022


#	Modifying user name:	trannguyen
#	Modification time:	Wed Dec  7 14:36:25 2022

@<TRIPOS>MOLECULE
CHEMBL820
 14 13 0 0 0
SMALL
GASTEIGER

@<TRIPOS>ATOM
      1 C           5.5284   29.8166   10.2244 C.3     1  UNL1        0.0373
      2 C           4.1161   29.4267    9.8067 C.3     1  UNL1        0.1744
      3 O           3.3350   29.1668   10.9667 O.3     1  UNL1       -0.2243
      4 C           0.9449   28.7806   10.0293 C.3     1  UNL1        0.2097
      5 S           2.2352   27.9595   10.9412 S.O2    1  UNL1        0.0957
      6 O           1.7669   27.7155   12.2892 O.2     1  UNL1       -0.1464
      7 O           2.7635   26.8801   10.1121 O.2     1  UNL1       -0.1464
      8 C           6.2752   30.6442    9.1719 C.3     1  UNL1        0.0373
      9 C           7.5456   31.3253    9.6768 C.3     1  UNL1        0.1744
     10 O           7.3487   32.7266    9.8024 O.3     1  UNL1       -0.2243
     11 S           7.4392   33.3340   11.3159 S.O2    1  UNL1        0.0957
     12 C           9.2015   33.5432   11.3975 C.3     1  UNL1        0.2097
     13 O           6.8163   34.6410   11.3211 O.2     1  UNL1       -0.1464
     14 O           7.0466   32.2974   12.2453 O.2     1  UNL1       -0.1464
@<TRIPOS>BOND
     1     4     5    1
     2     5     6    2
     3     5     7    2
     4     5     3    1
     5     3     2    1
     6     2     1    1
     7     1     8    1
     8     8     9    1
     9     9    10    1
    10    10    11    1
    11    11    12    1
    12    11    13    2
    13    11    14    2



#	Name:			CHEMBL833
#	Creating user name:	trannguyen
#	Creation time:		Wed Dec  7 14:36:25 2022


#	Modifying user name:	trannguyen
#	Modification time:	Wed Dec  7 14:36:25 2022

@<TRIPOS>MOLECULE
CHEMBL833
 17 19 0 0 0
SMALL
GASTEIGER

@<TRIPOS>ATOM
      1 N           3.3658   31.6829    7.9184 N.3     1  UNL1       -0.2648
      2 C           4.2844   32.8334    7.7316 C.3     1  UNL1        0.0779
      3 C           4.9195   32.8260    6.3249 C.3     1  UNL1        0.0500
      4 C           3.8446   32.6193    5.3111 C.ar    1  UNL1        0.0060
      5 S           4.0541   32.9290    3.6565 S.2     1  UNL1       -0.0910
      6 C           2.4463   32.4477    3.3175 C.ar    1  UNL1        0.0348
      7 C           1.7727   32.0476    4.4561 C.ar    1  UNL1        0.0042
      8 C           2.5901   32.1392    5.6261 C.ar    1  UNL1       -0.0036
      9 C           2.1744   31.8195    7.0403 C.3     1  UNL1        0.0996
     10 C           2.9653   31.5891    9.3370 C.3     1  UNL1        0.1002
     11 CL          5.4935   29.7419    9.7921 Cl      1  UNL1       -0.0825
     12 C           3.8480   29.2887   10.0637 C.ar    1  UNL1        0.0550
     13 C           3.6162   27.9911   10.5355 C.ar    1  UNL1        0.0111
     14 C           2.3166   27.5463   10.7695 C.ar    1  UNL1        0.0008
     15 C           1.2420   28.3940   10.5182 C.ar    1  UNL1       -0.0002
     16 C           1.4691   29.6901   10.0495 C.ar    1  UNL1       -0.0021
     17 C           2.7766   30.1665    9.8286 C.ar    1  UNL1        0.0045
@<TRIPOS>BOND
     1    11    12    1
     2    12    13   ar
     3    12    17   ar
     4    13    14   ar
     5    14    15   ar
     6    15    16   ar
     7    16    17   ar
     8    17    10    1
     9    10     1    1
    10     1     2    1
    11     1     9    1
    12     2     3    1
    13     3     4    1
    14     4     5   ar
    15     4     8   ar
    16     5     6   ar
    17     6     7   ar
    18     7     8   ar
    19     8     9    1



#	Name:			CHEMBL838
#	Creating user name:	trannguyen
#	Creation time:		Wed Dec  7 14:36:25 2022


#	Modifying user name:	trannguyen
#	Modification time:	Wed Dec  7 14:36:25 2022

@<TRIPOS>MOLECULE
CHEMBL838
 33 35 0 0 0
SMALL
GASTEIGER

@<TRIPOS>ATOM
      1 C           6.1335   32.9878    6.8786 C.3     1  UNL1        0.1327
      2 C           4.5957   32.9147    6.9673 C.3     1  UNL1        0.0298
      3 C           4.0370   32.9295    8.3755 C.3     1  UNL1        0.0295
      4 C           4.3641   31.6015    8.9950 C.ar    1  UNL1       -0.0084
      5 C           3.3258   30.6549    9.1188 C.ar    1  UNL1       -0.0030
      6 C           3.5695   29.3969    9.6571 C.ar    1  UNL1       -0.0002
      7 C           4.8405   29.0908   10.1215 C.ar    1  UNL1        0.0013
      8 C           5.8714   30.0298   10.0204 C.ar    1  UNL1        0.0146
      9 C           5.6672   31.2779    9.4109 C.ar    1  UNL1        0.0504
     10 N           6.7723   32.1713    9.2501 N.am    1  UNL1       -0.2473
     11 C           6.9530   33.0615    8.2000 C.2     1  UNL1        0.2440
     12 O           7.9163   33.8448    8.2426 O.2     1  UNL1       -0.2731
     13 N           6.6448   31.9319    5.9549 N.3     1  UNL1       -0.2835
     14 H           7.3287   31.3673    6.4540 H       1  UNL1        0.1241
     15 C           7.2431   32.3793    4.6672 C.3     1  UNL1        0.1550
     16 C           8.7557   32.7283    4.7347 C.2     1  UNL1        0.3314
     17 O           9.3059   33.4409    3.9152 O.2     1  UNL1       -0.2486
     18 O           9.3545   32.1831    5.8404 O.3     1  UNL1       -0.4476
     19 C          11.3217   32.2364    7.3163 C.3     1  UNL1        0.0513
     20 C          10.7902   32.2287    5.8915 C.3     1  UNL1        0.2086
     21 C           6.5129   33.6262    4.0976 C.3     1  UNL1        0.0318
     22 C           5.4094   33.3336    3.0551 C.3     1  UNL1        0.0283
     23 C           4.0476   32.9500    3.6230 C.ar    1  UNL1       -0.0221
     24 C           3.7238   31.5965    3.8368 C.ar    1  UNL1       -0.0043
     25 C           2.4783   31.2241    4.3628 C.ar    1  UNL1       -0.0003
     26 C           1.5314   32.1952    4.6747 C.ar    1  UNL1       -0.0000
     27 C           1.8227   33.5348    4.4409 C.ar    1  UNL1       -0.0003
     28 C           3.0627   33.9056    3.9095 C.ar    1  UNL1       -0.0043
     29 C           7.7344   32.2630   10.3749 C.3     1  UNL1        0.2078
     30 C           7.1810   32.7722   11.6959 C.2     1  UNL1        0.3347
     31 O           7.3142   32.1698   12.7614 O.2     1  UNL1       -0.2484
     32 O           6.4416   33.9045   11.6121 O.3     1  UNL1       -0.4790
     33 H           6.3055   34.2166   10.6882 H       1  UNL1        0.2951
@<TRIPOS>BOND
     1    19    20    1
     2    20    18    1
     3    18    16    1
     4    16    17    2
     5    15    21    1
     6    15    13    1
     7    15    16    1
     8    21    22    1
     9    22    23    1
    10    23    24   ar
    11    23    28   ar
    12    24    25   ar
    13    25    26   ar
    14    26    27   ar
    15    27    28   ar
    16    13     1    1
    17    13    14    1
    18     1     2    1
    19     1    11    1
    20     2     3    1
    21     3     4    1
    22     4     5   ar
    23     4     9   ar
    24     5     6   ar
    25     6     7   ar
    26     7     8   ar
    27     8     9   ar
    28     9    10    1
    29    10    29    1
    30    10    11   am
    31    29    30    1
    32    30    31    2
    33    30    32    1
    34    32    33    1
    35    11    12    2



#	Name:			CHEMBL841
#	Creating user name:	trannguyen
#	Creation time:		Wed Dec  7 14:36:25 2022


#	Modifying user name:	trannguyen
#	Modification time:	Wed Dec  7 14:36:25 2022

@<TRIPOS>MOLECULE
CHEMBL841
 35 38 0 0 0
SMALL
GASTEIGER

@<TRIPOS>ATOM
      1 C           5.5950   32.5252    8.2921 C.3     1  UNL1        0.1078
      2 C           7.0565   32.1951    7.8494 C.ar    1  UNL1       -0.0108
      3 C           7.5690   30.8816    7.8492 C.ar    1  UNL1       -0.0035
      4 C           8.8951   30.6029    7.5061 C.ar    1  UNL1       -0.0003
      5 C           9.7677   31.6386    7.2049 C.ar    1  UNL1       -0.0000
      6 C           9.3027   32.9502    7.2151 C.ar    1  UNL1       -0.0003
      7 C           7.9636   33.2252    7.5241 C.ar    1  UNL1       -0.0035
      8 C           4.7792   31.3353    8.9344 C.ar    1  UNL1       -0.0108
      9 C           3.3649   31.3966    8.9733 C.ar    1  UNL1       -0.0035
     10 C           2.5945   30.4131    9.6051 C.ar    1  UNL1       -0.0003
     11 C           3.2151   29.3452   10.2373 C.ar    1  UNL1       -0.0000
     12 C           4.6024   29.2453   10.2041 C.ar    1  UNL1       -0.0003
     13 C           5.3743   30.2218    9.5552 C.ar    1  UNL1       -0.0035
     14 C           7.1626   32.7846   11.0147 C.3     1  UNL1        0.1149
     15 N           6.2838   33.8108   10.4763 N.am    1  UNL1       -0.2755
     16 C           6.2231   35.0323   11.2741 C.3     1  UNL1        0.1149
     17 C           5.5120   33.7318    9.3167 C.2     1  UNL1        0.2325
     18 O           4.7129   34.6608    9.0896 O.2     1  UNL1       -0.2742
     19 C           4.8062   32.9630    6.9619 C.3     1  UNL1        0.0341
     20 C           4.3675   31.8456    5.9678 C.3     1  UNL1        0.0732
     21 N           4.5041   32.2232    4.5357 N.3     1  UNL1       -0.2725
     22 C           5.0980   33.5410    4.2647 C.3     1  UNL1        0.0748
     23 C           6.6210   33.6027    4.3939 C.3     1  UNL1        0.0485
     24 C           7.3328   32.5505    3.5106 C.3     1  UNL1        0.1096
     25 O           8.7177   32.5164    3.9009 O.3     1  UNL1       -0.3826
     26 C           6.7124   31.1838    3.8832 C.3     1  UNL1        0.0485
     27 C           5.1869   31.1888    3.7375 C.3     1  UNL1        0.0748
     28 H           8.7497   32.4076    4.8659 H       1  UNL1        0.2107
     29 C           7.3931   32.8677    2.0039 C.ar    1  UNL1        0.0019
     30 C           7.8037   31.9013    1.0623 C.ar    1  UNL1       -0.0012
     31 C           7.8214   32.1695   -0.3150 C.ar    1  UNL1        0.0111
     32 C           7.4013   33.4056   -0.7875 C.ar    1  UNL1        0.0577
     33 CL          7.4198   33.7352   -2.4759 Cl      1  UNL1       -0.0822
     34 C           6.9459   34.3667    0.1047 C.ar    1  UNL1        0.0111
     35 C           6.9330   34.0945    1.4811 C.ar    1  UNL1       -0.0012
@<TRIPOS>BOND
     1    14    15    1
     2    15    16    1
     3    15    17   am
     4    17    18    2
     5    17     1    1
     6     1    19    1
     7     1     2    1
     8     1     8    1
     9    19    20    1
    10    20    21    1
    11    21    22    1
    12    21    27    1
    13    22    23    1
    14    23    24    1
    15    24    25    1
    16    24    29    1
    17    24    26    1
    18    25    28    1
    19    29    30   ar
    20    29    35   ar
    21    30    31   ar
    22    31    32   ar
    23    32    33    1
    24    32    34   ar
    25    34    35   ar
    26    26    27    1
    27     2     3   ar
    28     2     7   ar
    29     3     4   ar
    30     4     5   ar
    31     5     6   ar
    32     6     7   ar
    33     8     9   ar
    34     8    13   ar
    35     9    10   ar
    36    10    11   ar
    37    11    12   ar
    38    12    13   ar



#	Name:			CHEMBL85
#	Creating user name:	trannguyen
#	Creation time:		Wed Dec  7 14:36:25 2022


#	Modifying user name:	trannguyen
#	Modification time:	Wed Dec  7 14:36:25 2022

@<TRIPOS>MOLECULE
CHEMBL85
 30 34 0 0 0
SMALL
GASTEIGER

@<TRIPOS>ATOM
      1 N           5.9330   33.5156    5.6007 N.3     1  UNL1       -0.2724
      2 C           7.2946   33.9240    5.2256 C.3     1  UNL1        0.0725
      3 C           8.0562   32.8696    4.4198 C.3     1  UNL1        0.0234
      4 C           7.2900   32.4436    3.1591 C.3     1  UNL1        0.0464
      5 C           5.8274   32.1128    3.5042 C.3     1  UNL1        0.0234
      6 C           5.1604   33.1726    4.3935 C.3     1  UNL1        0.0725
      7 C           7.4383   33.4410    2.0370 C.ar    1  UNL1        0.1003
      8 N           7.4689   34.7591    2.2811 N.ar    1  UNL1       -0.0814
      9 O           7.6098   35.3789    1.0577 O.2     1  UNL1       -0.3536
     10 C           7.6648   34.4423    0.0787 C.ar    1  UNL1        0.1787
     11 C           7.8017   34.6950   -1.2806 C.ar    1  UNL1        0.0698
     12 C           7.8346   33.5688   -2.0973 C.ar    1  UNL1        0.1433
     13 F           7.9633   33.7336   -3.4208 F       1  UNL1       -0.2041
     14 C           7.7380   32.2750   -1.5841 C.ar    1  UNL1        0.0299
     15 C           7.6007   32.0583   -0.2042 C.ar    1  UNL1        0.0067
     16 C           7.5623   33.1809    0.6428 C.ar    1  UNL1        0.0540
     17 C           5.8615   32.4382    6.6035 C.3     1  UNL1        0.0770
     18 C           5.4003   32.8955    7.9990 C.3     1  UNL1        0.0497
     19 C           6.9400   30.9378    9.7456 C.3     1  UNL1        0.0520
     20 C           5.4466   30.8807    9.5568 C.ar    1  UNL1        0.0613
     21 N           4.8327   29.8704   10.2494 N.ar    1  UNL1       -0.2368
     22 C           3.5607   29.6955   10.0979 C.ar    1  UNL1        0.1220
     23 N           2.7800   30.4647    9.2746 N.ar    1  UNL1       -0.2843
     24 C           3.3194   31.5788    8.6534 C.ar    1  UNL1        0.2588
     25 O           2.6441   32.4103    8.0387 O.2     1  UNL1       -0.2673
     26 C           4.7878   31.7557    8.7750 C.ar    1  UNL1        0.0489
     27 C           1.3318   30.3173    9.1966 C.3     1  UNL1        0.1102
     28 C           0.8246   28.9485    9.6117 C.3     1  UNL1        0.0251
     29 C           1.4269   28.5880   10.9555 C.3     1  UNL1        0.0099
     30 C           2.9353   28.5156   10.8219 C.3     1  UNL1        0.0641
@<TRIPOS>BOND
     1    19    20    1
     2    20    21   ar
     3    20    26   ar
     4    21    22   ar
     5    22    23   ar
     6    22    30    1
     7    23    24   ar
     8    23    27    1
     9    24    25    2
    10    24    26   ar
    11    26    18    1
    12    18    17    1
    13    17     1    1
    14     1     2    1
    15     1     6    1
    16     2     3    1
    17     3     4    1
    18     4     7    1
    19     4     5    1
    20     7     8   ar
    21     7    16   ar
    22     8     9   ar
    23     9    10   ar
    24    10    11   ar
    25    10    16   ar
    26    11    12   ar
    27    12    13    1
    28    12    14   ar
    29    14    15   ar
    30    15    16   ar
    31     5     6    1
    32    27    28    1
    33    28    29    1
    34    29    30    1



#	Name:			CHEMBL852
#	Creating user name:	trannguyen
#	Creation time:		Wed Dec  7 14:36:25 2022


#	Modifying user name:	trannguyen
#	Modification time:	Wed Dec  7 14:36:25 2022

@<TRIPOS>MOLECULE
CHEMBL852
 22 22 0 0 0
SMALL
GASTEIGER

@<TRIPOS>ATOM
      1 C           2.3283   30.7456    9.2256 C.ar    1  UNL1       -0.0202
      2 C           1.5560   30.8213    8.0653 C.ar    1  UNL1       -0.0029
      3 C           2.0598   31.4323    6.8952 C.ar    1  UNL1        0.0142
      4 C           3.3654   31.9485    6.8156 C.ar    1  UNL1        0.0479
      5 C           4.1201   31.8151    7.9951 C.ar    1  UNL1        0.0142
      6 C           3.6099   31.2787    9.1824 C.ar    1  UNL1       -0.0029
      7 C           1.8094   30.1171   10.5036 C.3     1  UNL1        0.0532
      8 N          -0.2512   28.6414   10.4624 N.3     1  UNL1       -0.3131
      9 CA          1.2386   28.7256   10.2997 C.3     1  UNL1        0.1553
     10 H1         -0.6666   29.1897    9.7060 H       1  UNL1        0.1193
     11 H2         -0.4810   29.1920   11.3024 H       1  UNL1        0.1193
     12 C           1.8732   27.6908   11.2454 C.2     1  UNL1        0.3283
     13 O           2.0971   27.8629   12.4317 O.2     1  UNL1       -0.2488
     14 OXT         2.2137   26.5456   10.5547 O.3     1  UNL1       -0.4793
     15 HXT         1.8702   26.6617    9.6453 H       1  UNL1        0.2951
     16 N           3.8803   32.5822    5.6747 N.pl3   1  UNL1       -0.3049
     17 C           2.9526   33.2802    4.7469 C.3     1  UNL1        0.1083
     18 C           2.6677   32.5401    3.4268 C.3     1  UNL1        0.1162
     19 CL          3.0480   30.8051    3.5274 Cl      1  UNL1       -0.1118
     20 C           5.3067   32.9982    5.6134 C.3     1  UNL1        0.1083
     21 C           6.1674   31.9951    4.8400 C.3     1  UNL1        0.1162
     22 CL          6.2760   32.4477    3.1143 Cl      1  UNL1       -0.1118
@<TRIPOS>BOND
     1     8     9    1
     2     8    10    1
     3     8    11    1
     4     9     7    1
     5     9    12    1
     6     7     1    1
     7     1     2   ar
     8     1     6   ar
     9     2     3   ar
    10     3     4   ar
    11     4    16    1
    12     4     5   ar
    13    16    17    1
    14    16    20    1
    15    17    18    1
    16    18    19    1
    17    20    21    1
    18    21    22    1
    19     5     6   ar
    20    12    13    2
    21    12    14    1
    22    14    15    1



#	Name:			CHEMBL86
#	Creating user name:	trannguyen
#	Creation time:		Wed Dec  7 14:36:25 2022


#	Modifying user name:	trannguyen
#	Modification time:	Wed Dec  7 14:36:25 2022

@<TRIPOS>MOLECULE
CHEMBL86
 23 23 0 0 0
SMALL
GASTEIGER

@<TRIPOS>ATOM
      1 C           3.3663   30.6579    9.0766 C.ar    1  UNL1        0.0882
      2 C           2.0150   30.2894    9.1764 C.ar    1  UNL1        0.0202
      3 C           1.6252   29.2362   10.0033 C.ar    1  UNL1        0.0709
      4 CL         -0.0576   28.8555   10.1236 Cl      1  UNL1       -0.0810
      5 C           2.5698   28.5335   10.7657 C.ar    1  UNL1        0.0553
      6 N           2.2255   27.4096   11.5401 N.pl3   1  UNL1       -0.3563
      7 C           3.9240   28.8254   10.5701 C.ar    1  UNL1        0.0520
      8 C           4.3383   29.8923    9.7584 C.ar    1  UNL1        0.1443
      9 H           1.2537   27.4324   11.8472 H       1  UNL1        0.1424
     10 H           2.8651   27.2128   12.3034 H       1  UNL1        0.1424
     11 N           4.7941   31.8950    7.5044 N.am    1  UNL1       -0.2994
     12 C           3.6621   31.9059    8.2809 C.2     1  UNL1        0.2489
     13 O           2.9174   32.8764    8.3591 O.2     1  UNL1       -0.2700
     14 H           5.3087   31.0273    7.4271 H       1  UNL1        0.1498
     15 C           5.2009   32.9972    6.6432 C.3     1  UNL1        0.1070
     16 C           4.8584   32.8601    5.1377 C.3     1  UNL1        0.0936
     17 N           4.8033   31.4969    4.5303 N.3     1  UNL1       -0.2712
     18 C           2.3035   31.2914    4.9302 C.3     1  UNL1        0.0188
     19 C           3.4759   31.2386    3.9597 C.3     1  UNL1        0.0722
     20 C           5.9615   31.2963    3.6464 C.3     1  UNL1        0.0722
     21 C           6.5444   32.5077    2.9380 C.3     1  UNL1        0.0188
     22 O           5.6640   30.1807    9.5454 O.3     1  UNL1       -0.4712
     23 C           6.3893   30.7299   10.6430 C.3     1  UNL1        0.2525
@<TRIPOS>BOND
     1    18    19    1
     2    19    17    1
     3    17    20    1
     4    17    16    1
     5    20    21    1
     6    16    15    1
     7    15    11    1
     8    11    12   am
     9    11    14    1
    10    12    13    2
    11    12     1    1
    12     1     2   ar
    13     1     8   ar
    14     2     3   ar
    15     3     4    1
    16     3     5   ar
    17     5     6    1
    18     5     7   ar
    19     6     9    1
    20     6    10    1
    21     7     8   ar
    22     8    22    1
    23    22    23    1



#	Name:			CHEMBL865
#	Creating user name:	trannguyen
#	Creation time:		Wed Dec  7 14:36:25 2022


#	Modifying user name:	trannguyen
#	Modification time:	Wed Dec  7 14:36:25 2022

@<TRIPOS>MOLECULE
CHEMBL865
 24 26 0 0 0
SMALL
GASTEIGER

@<TRIPOS>ATOM
      1 C           6.8816   32.8508   10.2074 C.3     1  UNL1        0.0754
      2 C           6.1652   32.8410    8.9139 C.ar    1  UNL1        0.1547
      3 O           6.6745   33.6728    7.9737 O.2     1  UNL1       -0.3578
      4 N           5.9580   33.5586    6.8118 N.ar    1  UNL1       -0.0774
      5 C           4.9844   32.6591    7.0388 C.ar    1  UNL1        0.1225
      6 C           5.0774   32.1622    8.3899 C.ar    1  UNL1        0.0537
      7 C           4.0361   32.3425    5.9617 C.ar    1  UNL1        0.0209
      8 C           2.6766   32.6668    6.0619 C.ar    1  UNL1        0.0016
      9 C           1.7865   32.3524    5.0309 C.ar    1  UNL1        0.0000
     10 C           2.2506   31.7450    3.8671 C.ar    1  UNL1        0.0000
     11 C           3.6023   31.4372    3.7383 C.ar    1  UNL1        0.0000
     12 C           4.4874   31.7265    4.7812 C.ar    1  UNL1        0.0016
     13 C           4.3396   31.1339    9.1212 C.ar    1  UNL1        0.0043
     14 C           4.9666   29.9468    9.5354 C.ar    1  UNL1        0.0015
     15 C           4.2386   28.9249   10.1498 C.ar    1  UNL1        0.0199
     16 C           2.8767   29.0946   10.3932 C.ar    1  UNL1        0.1217
     17 C           2.2466   30.2958   10.0592 C.ar    1  UNL1        0.0199
     18 C           2.9728   31.2940    9.3981 C.ar    1  UNL1        0.0015
     19 S           1.9647   27.7943   11.1707 S.O2    1  UNL1        0.0572
     20 N           0.3970   28.1096   10.6510 N.3     1  UNL1       -0.2035
     21 O           2.3311   26.5327   10.5651 O.2     1  UNL1       -0.1532
     22 O           1.9625   27.9986   12.5930 O.2     1  UNL1       -0.1532
     23 H           0.0617   27.3367   10.0766 H       1  UNL1        0.1442
     24 H          -0.1992   28.3043   11.4575 H       1  UNL1        0.1442
@<TRIPOS>BOND
     1     1     2    1
     2     2     3   ar
     3     2     6   ar
     4     3     4   ar
     5     4     5   ar
     6     5     7    1
     7     5     6   ar
     8     7     8   ar
     9     7    12   ar
    10     8     9   ar
    11     9    10   ar
    12    10    11   ar
    13    11    12   ar
    14     6    13    1
    15    13    14   ar
    16    13    18   ar
    17    14    15   ar
    18    15    16   ar
    19    16    19    1
    20    16    17   ar
    21    19    20    1
    22    19    21    2
    23    19    22    2
    24    20    23    1
    25    20    24    1
    26    17    18   ar



#	Name:			CHEMBL870
#	Creating user name:	trannguyen
#	Creation time:		Wed Dec  7 14:36:25 2022


#	Modifying user name:	trannguyen
#	Modification time:	Wed Dec  7 14:36:25 2022

@<TRIPOS>MOLECULE
CHEMBL870
 21 20 0 0 0
SMALL
GASTEIGER

@<TRIPOS>ATOM
      1 C           2.0758   30.0471   10.1912 C.3     1  UNL1        0.2746
      2 O           1.8475   30.7174   11.4641 O.3     1  UNL1       -0.3667
      3 H           1.0112   30.3217   11.7881 H       1  UNL1        0.2117
      4 P           0.6804   30.4887    9.0671 P.3     1  UNL1        0.3716
      5 O           0.9012   30.4178    7.6040 O.2     1  UNL1       -0.2551
      6 O          -0.5785   29.5948    9.5366 O.3     1  UNL1       -0.3217
      7 O           0.1461   31.9462    9.4989 O.3     1  UNL1       -0.3217
      8 H          -1.3209   29.6075    8.9077 H       1  UNL1        0.2198
      9 H          -0.4872   32.3232    8.8626 H       1  UNL1        0.2198
     10 P           2.0601   28.2319   10.4230 P.3     1  UNL1        0.3716
     11 O           3.2690   28.2577   11.3754 O.2     1  UNL1       -0.2551
     12 O           0.7953   28.3177   11.4783 O.3     1  UNL1       -0.3217
     13 O           2.0453   26.5159   10.6420 O.3     1  UNL1       -0.3217
     14 H           1.1187   28.0760   12.3688 H       1  UNL1        0.2198
     15 H           2.7078   26.3679   11.3473 H       1  UNL1        0.2198
     16 C           3.4296   30.5415    9.6156 C.3     1  UNL1        0.0525
     17 C           3.4705   31.8655    8.8154 C.3     1  UNL1        0.0205
     18 N           2.6626   33.5148   10.4581 N.3     1  UNL1       -0.3211
     19 C           3.7439   33.1795    9.5533 C.3     1  UNL1        0.0653
     20 H           2.8527   34.3985   10.9402 H       1  UNL1        0.1189
     21 H           2.5076   32.8057   11.1784 H       1  UNL1        0.1189
@<TRIPOS>BOND
     1    18    19    1
     2    18    20    1
     3    18    21    1
     4    19    17    1
     5    17    16    1
     6    16     1    1
     7     1     2    1
     8     1     4    1
     9     1    10    1
    10     2     3    1
    11     4     5    2
    12     4     6    1
    13     4     7    1
    14     6     8    1
    15     7     9    1
    16    10    11    2
    17    10    12    1
    18    10    13    1
    19    12    14    1
    20    13    15    1



#	Name:			CHEMBL877
#	Creating user name:	trannguyen
#	Creation time:		Wed Dec  7 14:36:25 2022


#	Modifying user name:	trannguyen
#	Modification time:	Wed Dec  7 14:36:25 2022

@<TRIPOS>MOLECULE
CHEMBL877
 14 14 0 0 0
SMALL
GASTEIGER

@<TRIPOS>ATOM
      1 C           1.7269   31.5076    9.2336 C.3     1  UNL1        0.0155
      2 C           0.4977   30.5845    9.2548 C.3     1  UNL1        0.0019
      3 C           0.8316   29.1334    8.9120 C.3     1  UNL1        0.0111
      4 C           1.9459   28.5523    9.7912 C.3     1  UNL1        0.0989
      5 C           3.1715   29.4785    9.8346 C.3     1  UNL1        0.0111
      6 C           2.8210   30.9356   10.1485 C.3     1  UNL1        0.0019
      7 N           1.2158   32.1199    6.8779 N.3     1  UNL1       -0.3211
      8 C           2.2769   31.7718    7.8171 C.3     1  UNL1        0.0651
      9 H           1.6273   32.3593    5.9764 H       1  UNL1        0.1189
     10 H           0.7372   32.9606    7.2013 H       1  UNL1        0.1189
     11 C           1.4519   28.2074   11.1938 C.2     1  UNL1        0.3132
     12 O           2.1487   28.1642   12.1943 O.2     1  UNL1       -0.2503
     13 O           0.1365   27.8886   11.2330 O.3     1  UNL1       -0.4802
     14 H          -0.3102   27.9181   10.3671 H       1  UNL1        0.2951
@<TRIPOS>BOND
     1     7     8    1
     2     7     9    1
     3     7    10    1
     4     8     1    1
     5     1     2    1
     6     1     6    1
     7     2     3    1
     8     3     4    1
     9     4    11    1
    10     4     5    1
    11    11    12    2
    12    11    13    1
    13    13    14    1
    14     5     6    1



#	Name:			CHEMBL88
#	Creating user name:	trannguyen
#	Creation time:		Wed Dec  7 14:36:25 2022


#	Modifying user name:	trannguyen
#	Modification time:	Wed Dec  7 14:36:25 2022

@<TRIPOS>MOLECULE
CHEMBL88
 15 15 0 0 0
SMALL
GASTEIGER

@<TRIPOS>ATOM
      1 O           2.2212   32.4467   10.5689 O.2     1  UNL1       -0.2542
      2 P           2.3514   31.0957    9.9007 P.3     1  UNL1        0.3483
      3 N           0.9927   30.2148    9.9775 N.3     1  UNL1       -0.2223
      4 C           0.9689   28.7790    9.8356 C.3     1  UNL1        0.0801
      5 C           2.0994   28.1348   10.6236 C.3     1  UNL1        0.0501
      6 C           3.4530   28.7863   10.3689 C.3     1  UNL1        0.1531
      7 O           3.4278   30.1796   10.6606 O.3     1  UNL1       -0.2919
      8 H           0.1216   30.6360    9.6844 H       1  UNL1        0.1333
      9 N           2.8247   31.2103    8.3254 N.3     1  UNL1       -0.1956
     10 C           1.7673   31.1760    7.2848 C.3     1  UNL1        0.0991
     11 C           2.0985   32.0013    6.0378 C.3     1  UNL1        0.1126
     12 CL          2.7396   30.9658    4.7387 Cl      1  UNL1       -0.1122
     13 C           3.8084   32.2733    7.9754 C.3     1  UNL1        0.0991
     14 C           5.3028   31.9915    8.2025 C.3     1  UNL1        0.1126
     15 CL          5.8139   32.6826    9.7769 Cl      1  UNL1       -0.1122
@<TRIPOS>BOND
     1     1     2    2
     2     2     9    1
     3     2     3    1
     4     2     7    1
     5     9    10    1
     6     9    13    1
     7    10    11    1
     8    11    12    1
     9    13    14    1
    10    14    15    1
    11     3     4    1
    12     3     8    1
    13     4     5    1
    14     5     6    1
    15     6     7    1



#	Name:			CHEMBL880
#	Creating user name:	trannguyen
#	Creation time:		Wed Dec  7 14:36:25 2022


#	Modifying user name:	trannguyen
#	Modification time:	Wed Dec  7 14:36:25 2022

@<TRIPOS>MOLECULE
CHEMBL880
 25 26 0 0 0
SMALL
GASTEIGER

@<TRIPOS>ATOM
      1 C           2.9377   31.6499    7.6258 C.3     1  UNL1        0.1093
      2 N           2.8781   31.9547    6.2081 N.ar    1  UNL1       -0.2944
      3 C           1.8216   31.7722    5.3569 C.ar    1  UNL1        0.1797
      4 N           2.0830   32.2231    4.1440 N.ar    1  UNL1       -0.2207
      5 C           3.3563   32.7356    4.2240 C.ar    1  UNL1        0.1363
      6 C           4.2143   33.3233    3.3028 C.ar    1  UNL1        0.1240
      7 N           5.4398   33.7517    3.7134 N.ar    1  UNL1       -0.2108
      8 C           5.7880   33.5782    5.0020 C.ar    1  UNL1        0.2151
      9 N           7.0281   34.0460    5.3888 N.pl3   1  UNL1       -0.3274
     10 N           5.0400   33.0297    5.9679 N.ar    1  UNL1       -0.1950
     11 C           3.8513   32.6136    5.5097 C.ar    1  UNL1        0.1672
     12 H           7.3109   34.7994    4.7784 H       1  UNL1        0.1452
     13 H           7.0127   34.2351    6.3812 H       1  UNL1        0.1452
     14 C           1.8460   30.6866    8.1307 C.3     1  UNL1        0.0320
     15 C           1.3495   30.9867    9.5770 C.3     1  UNL1        0.0895
     16 C           1.7658   32.3687   10.1164 C.3     1  UNL1        0.2121
     17 O           0.6513   33.2565   10.2865 O.3     1  UNL1       -0.4484
     18 C           2.4251   34.7376   10.6359 C.3     1  UNL1        0.1212
     19 C           0.9437   34.5572   10.5461 C.2     1  UNL1        0.3176
     20 O           0.1267   35.4581   10.6528 O.2     1  UNL1       -0.2501
     21 C           1.8265   29.9283   10.5974 C.3     1  UNL1        0.2121
     22 O           1.7518   28.6000   10.0535 O.3     1  UNL1       -0.4484
     23 C           2.5665   27.6957   10.6288 C.2     1  UNL1        0.3176
     24 C           3.9369   27.7101   10.0602 C.3     1  UNL1        0.1212
     25 O           2.2492   26.9396   11.5332 O.2     1  UNL1       -0.2501
@<TRIPOS>BOND
     1    18    19    1
     2    19    20    2
     3    19    17    1
     4    17    16    1
     5    16    15    1
     6    15    14    1
     7    15    21    1
     8    14     1    1
     9     1     2    1
    10     2     3   ar
    11     2    11   ar
    12     3     4   ar
    13     4     5   ar
    14     5     6   ar
    15     5    11   ar
    16     6     7   ar
    17     7     8   ar
    18     8     9    1
    19     8    10   ar
    20     9    12    1
    21     9    13    1
    22    10    11   ar
    23    21    22    1
    24    22    23    1
    25    23    24    1
    26    23    25    2



#	Name:			CHEMBL888
#	Creating user name:	trannguyen
#	Creation time:		Wed Dec  7 14:36:25 2022


#	Modifying user name:	trannguyen
#	Modification time:	Wed Dec  7 14:36:25 2022

@<TRIPOS>MOLECULE
CHEMBL888
 22 23 0 0 0
SMALL
GASTEIGER

@<TRIPOS>ATOM
      1 C           3.3286   29.9484    9.0861 C.3     1  UNL1        0.2738
      2 O           1.9248   29.8181    8.7584 O.3     1  UNL1       -0.3285
      3 C           1.3709   28.8116    9.6447 C.3     1  UNL1        0.1789
      4 C           2.2722   28.7076   10.8664 C.3     1  UNL1        0.2062
      5 O           2.1483   27.4237   11.4862 O.3     1  UNL1       -0.3771
      6 C           3.6241   28.9836   10.2429 C.3     1  UNL1        0.3348
      7 F           4.1352   27.8254    9.7311 F       1  UNL1       -0.1968
      8 F           4.5254   29.4334   11.1363 F       1  UNL1       -0.1968
      9 H           2.9098   27.3089   12.0838 H       1  UNL1        0.2106
     10 N           4.6776   35.2700    9.7985 N.pl3   1  UNL1       -0.3425
     11 C           4.3337   33.9576    9.6239 C.ar    1  UNL1        0.1316
     12 C           2.9283   33.5481    9.7963 C.ar    1  UNL1        0.0528
     13 C           2.6663   32.2601    9.5813 C.ar    1  UNL1        0.0850
     14 N           3.6653   31.3682    9.2492 N.ar    1  UNL1       -0.2512
     15 C           4.9901   31.7956    9.1035 C.ar    1  UNL1        0.3531
     16 O           5.8778   31.0128    8.8005 O.2     1  UNL1       -0.2443
     17 N           5.2735   33.1311    9.2974 N.ar    1  UNL1       -0.1777
     18 H           3.9854   35.9708    9.5663 H       1  UNL1        0.1437
     19 H           5.6031   35.4828    9.4379 H       1  UNL1        0.1437
     20 C          -0.0657   29.1843   10.0022 C.3     1  UNL1        0.1694
     21 O          -0.7848   28.0117   10.3913 O.3     1  UNL1       -0.3794
     22 H          -0.4464   27.2856    9.8344 H       1  UNL1        0.2105
@<TRIPOS>BOND
     1    10    11    1
     2    10    18    1
     3    10    19    1
     4    11    12   ar
     5    11    17   ar
     6    12    13   ar
     7    13    14   ar
     8    14    15   ar
     9     1     2    1
    10     1     6    1
    11     1    14    1
    12     2     3    1
    13     3    20    1
    14     3     4    1
    15    20    21    1
    16    21    22    1
    17     4     6    1
    18     4     5    1
    19     5     9    1
    20     6     7    1
    21     6     8    1
    22    15    16    2
    23    15    17   ar



#	Name:			CHEMBL891
#	Creating user name:	trannguyen
#	Creation time:		Wed Dec  7 14:36:25 2022


#	Modifying user name:	trannguyen
#	Modification time:	Wed Dec  7 14:36:25 2022

@<TRIPOS>MOLECULE
CHEMBL891
 31 34 0 0 0
SMALL
GASTEIGER

@<TRIPOS>ATOM
      1 C           4.2601   30.1451    9.4549 C.2     1  UNL1        0.2505
      2 O           4.6980   29.0262    9.7230 O.2     1  UNL1       -0.2700
      3 N           5.1083   31.2286    9.4931 N.am    1  UNL1       -0.2927
      4 H           4.7384   32.1634    9.4175 H       1  UNL1        0.1502
      5 CA          6.5570   31.0540    9.8029 C.3     1  UNL1        0.1779
      6 C           7.1464   31.9791   10.8876 C.2     1  UNL1        0.2471
      7 O           6.7730   32.4516   11.9391 O.2     1  UNL1       -0.2730
      8 N           8.2376   32.2824   10.1075 N.am    1  UNL1       -0.2597
      9 CA          8.7387   33.6653   10.0756 C.3     1  UNL1        0.1843
     10 C           7.8717   34.4621    9.0677 C.3     1  UNL1        0.0679
     11 C           8.6188   35.4972    8.2184 C.3     1  UNL1        0.0131
     12 C           6.7313   35.1904    9.7937 C.3     1  UNL1        0.0131
     13 S           7.0807   33.2233    7.9299 S.3     1  UNL1       -0.1185
     14 C           7.5977   31.7509    8.8834 C.3     1  UNL1        0.1509
     15 C          10.2483   33.6698    9.7906 C.2     1  UNL1        0.3329
     16 O          10.7753   33.0927    8.8506 O.2     1  UNL1       -0.2484
     17 OXT        10.9698   34.4224   10.6562 O.3     1  UNL1       -0.4790
     18 HXT        10.3808   34.8920   11.2778 H       1  UNL1        0.2951
     19 C           1.6975   29.1668   11.1429 C.3     1  UNL1        0.0755
     20 C           1.8128   29.8972    9.8607 C.ar    1  UNL1        0.1591
     21 O           0.6349   30.1988    9.2731 O.2     1  UNL1       -0.3576
     22 N           0.8618   30.8469    8.0941 N.ar    1  UNL1       -0.0772
     23 C           2.1911   30.9976    7.9737 C.ar    1  UNL1        0.1277
     24 C           2.8660   30.3596    9.0798 C.ar    1  UNL1        0.1070
     25 C           2.6882   31.7074    6.7873 C.ar    1  UNL1        0.0316
     26 C           2.6009   31.0986    5.5239 C.ar    1  UNL1        0.0024
     27 C           3.0882   31.7416    4.3815 C.ar    1  UNL1        0.0001
     28 C           3.5880   33.0351    4.4608 C.ar    1  UNL1        0.0009
     29 C           3.6126   33.6862    5.6887 C.ar    1  UNL1        0.0114
     30 C           3.1922   33.0247    6.8511 C.ar    1  UNL1        0.0592
     31 CL          3.3711   33.9075    8.3313 Cl      1  UNL1       -0.0822
@<TRIPOS>BOND
     1    19    20    1
     2    20    21   ar
     3    20    24   ar
     4    21    22   ar
     5    22    23   ar
     6    23    25    1
     7    23    24   ar
     8    25    26   ar
     9    25    30   ar
    10    26    27   ar
    11    27    28   ar
    12    28    29   ar
    13    29    30   ar
    14    30    31    1
    15    24     1    1
    16     1     2    2
    17     1     3   am
    18     3     4    1
    19     5     6    1
    20     5    14    1
    21     5     3    1
    22     6     7    2
    23     6     8   am
    24     8     9    1
    25     8    14    1
    26     9    10    1
    27     9    15    1
    28    15    16    2
    29    15    17    1
    30    17    18    1
    31    10    11    1
    32    10    12    1
    33    10    13    1
    34    13    14    1



#	Name:			CHEMBL895
#	Creating user name:	trannguyen
#	Creation time:		Wed Dec  7 14:36:25 2022


#	Modifying user name:	trannguyen
#	Modification time:	Wed Dec  7 14:36:25 2022

@<TRIPOS>MOLECULE
CHEMBL895
 29 34 0 0 0
SMALL
GASTEIGER

@<TRIPOS>ATOM
      1 O           3.1680   43.6801   -5.3282 O.3     1  UNL1       -0.5029
      2 C           4.0744   42.7116   -4.9908 C.ar    1  UNL1        0.1674
      3 C           4.8047   42.8146   -3.7351 C.ar    1  UNL1        0.0394
      4 C           5.8335   41.9204   -3.2926 C.ar    1  UNL1       -0.0012
      5 C           6.1056   40.8715   -4.1281 C.ar    1  UNL1       -0.0214
      6 C           5.2125   40.7691   -5.4637 C.ar    1  UNL1        0.0161
      7 C           4.3007   41.6830   -5.8806 C.ar    1  UNL1        0.1677
      8 O           3.8807   41.4274   -7.1604 O.3     1  UNL1       -0.4736
      9 C           4.9829   40.6027   -7.6998 C.3     1  UNL1        0.1984
     10 C           4.6635   39.8994   -9.0211 C.3     1  UNL1        0.1507
     11 O           4.5191   40.8850  -10.0505 O.3     1  UNL1       -0.3808
     12 C           5.7846   38.9042   -9.4501 C.3     1  UNL1        0.0354
     13 C           7.1160   38.9677   -8.6314 C.3     1  UNL1        0.0313
     14 C           6.8524   38.6609   -7.1276 C.3     1  UNL1        0.1088
     15 O           6.5775   37.2175   -7.1660 O.3     1  UNL1       -0.3850
     16 C           8.1401   38.8988   -5.6615 C.3     1  UNL1        0.0870
     17 C           7.4807   39.6656   -3.9956 C.3     1  UNL1        0.0445
     18 N           8.7899   40.1131   -5.9198 N.3     1  UNL1       -0.2716
     19 C           7.4581   40.6219   -6.1167 C.3     1  UNL1        0.0727
     20 C           6.0828   39.2620   -5.5800 C.3     1  UNL1        0.0274
     21 C           5.3325   39.5060   -6.7037 C.3     1  UNL1        0.0857
     22 H           3.1131   44.3218   -4.6031 H       1  UNL1        0.2923
     23 H           3.8620   41.5298   -9.7238 H       1  UNL1        0.2105
     24 H           7.4357   36.7713   -7.2802 H       1  UNL1        0.2103
     25 C           9.7615   40.1459   -6.9922 C.3     1  UNL1        0.0721
     26 C           9.5926   41.4081   -7.8351 C.3     1  UNL1        0.0160
     27 C          10.7939   42.3932   -7.8078 C.3     1  UNL1        0.0014
     28 C          10.4649   42.7201   -9.2783 C.3     1  UNL1        0.0001
     29 C           9.8294   41.3182   -9.3692 C.3     1  UNL1        0.0014
@<TRIPOS>BOND
     1     1     2    1
     2     1    22    1
     3     2     3   ar
     4     2     7   ar
     5     3     4   ar
     6     4     5   ar
     7     5     6   ar
     8     5    17    1
     9     6     7   ar
    10     6    21    1
    11     7     8    1
    12     8     9    1
    13     9    10    1
    14     9    21    1
    15    10    12    1
    16    10    11    1
    17    11    23    1
    18    12    13    1
    19    13    14    1
    20    14    15    1
    21    14    16    1
    22    14    21    1
    23    15    24    1
    24    16    17    1
    25    16    18    1
    26    18    25    1
    27    18    19    1
    28    25    26    1
    29    26    27    1
    30    26    29    1
    31    27    28    1
    32    28    29    1
    33    19    20    1
    34    21    20    1



#	Name:			CHEMBL897
#	Creating user name:	trannguyen
#	Creation time:		Wed Dec  7 14:36:25 2022


#	Modifying user name:	trannguyen
#	Modification time:	Wed Dec  7 14:36:25 2022

@<TRIPOS>MOLECULE
CHEMBL897
 20 20 0 0 0
SMALL
GASTEIGER

@<TRIPOS>ATOM
      1 S           4.3861   32.6918    8.2814 S.O2    1  UNL1        0.0633
      2 O           5.6519   32.9487    8.9190 O.2     1  UNL1       -0.1528
      3 O           3.2981   33.6286    8.3886 O.2     1  UNL1       -0.1528
      4 C           3.8105   31.1218    8.9503 C.ar    1  UNL1        0.1222
      5 C           4.7179   30.2805    9.6073 C.ar    1  UNL1        0.0201
      6 C           4.2608   29.1510   10.2993 C.ar    1  UNL1        0.0078
      7 C           2.8958   28.8313   10.3014 C.ar    1  UNL1        0.0755
      8 C           1.9885   29.6836    9.6564 C.ar    1  UNL1        0.0078
      9 C           2.4389   30.8439    9.0086 C.ar    1  UNL1        0.0201
     10 C           2.3508   27.6495   11.0270 C.2     1  UNL1        0.3380
     11 O           1.9106   27.7162   12.1597 O.2     1  UNL1       -0.2451
     12 O           2.3400   26.5112   10.3015 O.3     1  UNL1       -0.4771
     13 H           2.6164   26.5957    9.3723 H       1  UNL1        0.2954
     14 N           4.6610   32.3629    6.6184 N.3     1  UNL1       -0.1555
     15 C           3.4853   32.6229    5.7263 C.3     1  UNL1        0.0958
     16 C           3.1166   30.8754    3.9350 C.3     1  UNL1        0.0015
     17 C           2.7246   31.3576    5.3218 C.3     1  UNL1        0.0191
     18 C           6.0039   32.7570    6.0742 C.3     1  UNL1        0.0958
     19 C           6.4656   31.9064    4.8879 C.3     1  UNL1        0.0191
     20 C           6.5571   32.6908    3.5818 C.3     1  UNL1        0.0015
@<TRIPOS>BOND
     1    16    17    1
     2    17    15    1
     3    15    14    1
     4    14    18    1
     5    14     1    1
     6    18    19    1
     7    19    20    1
     8     1     2    2
     9     1     3    2
    10     1     4    1
    11     4     5   ar
    12     4     9   ar
    13     5     6   ar
    14     6     7   ar
    15     7    10    1
    16     7     8   ar
    17    10    11    2
    18    10    12    1
    19    12    13    1
    20     8     9   ar



#	Name:			CHEMBL898
#	Creating user name:	trannguyen
#	Creation time:		Wed Dec  7 14:36:25 2022


#	Modifying user name:	trannguyen
#	Modification time:	Wed Dec  7 14:36:25 2022

@<TRIPOS>MOLECULE
CHEMBL898
 20 21 0 0 0
SMALL
GASTEIGER

@<TRIPOS>ATOM
      1 C           1.6796   28.8362   10.2868 C.ar    1  UNL1        0.1090
      2 C           2.7648   29.5672    9.7646 C.ar    1  UNL1        0.0096
      3 C           2.5869   30.6690    8.9039 C.ar    1  UNL1        0.0026
      4 C           1.2612   31.0124    8.5833 C.ar    1  UNL1        0.0032
      5 C           0.1682   30.3085    9.1021 C.ar    1  UNL1        0.0368
      6 C           0.3800   29.2220    9.9460 C.ar    1  UNL1        0.1398
      7 O          -0.6989   28.5334   10.4377 O.3     1  UNL1       -0.5053
      8 H          -1.5132   28.9245   10.0665 H       1  UNL1        0.2922
      9 C           3.7474   31.4304    8.3706 C.ar    1  UNL1        0.0276
     10 C           4.8226   31.8034    9.2053 C.ar    1  UNL1        0.0045
     11 C           5.9071   32.5417    8.7163 C.ar    1  UNL1        0.0298
     12 C           5.9429   32.9065    7.3784 C.ar    1  UNL1        0.1424
     13 F           6.9818   33.6104    6.9118 F       1  UNL1       -0.2041
     14 C           4.9160   32.5521    6.5214 C.ar    1  UNL1        0.0592
     15 C           3.8335   31.8294    7.0202 C.ar    1  UNL1        0.1423
     16 F           2.8475   31.5361    6.1576 F       1  UNL1       -0.2041
     17 O           2.0597   27.7988   12.3984 O.2     1  UNL1       -0.2450
     18 C           2.0027   27.6855   11.1817 C.2     1  UNL1        0.3410
     19 O           2.2320   26.5121   10.5584 O.3     1  UNL1       -0.4770
     20 H           2.1491   26.5863    9.5814 H       1  UNL1        0.2954
@<TRIPOS>BOND
     1    17    18    2
     2    18    19    1
     3    18     1    1
     4    19    20    1
     5     1     2   ar
     6     1     6   ar
     7     2     3   ar
     8     3     9    1
     9     3     4   ar
    10     9    10   ar
    11     9    15   ar
    12    10    11   ar
    13    11    12   ar
    14    12    13    1
    15    12    14   ar
    16    14    15   ar
    17    15    16    1
    18     4     5   ar
    19     5     6   ar
    20     6     7    1
    21     7     8    1



#	Name:			CHEMBL90555
#	Creating user name:	trannguyen
#	Creation time:		Wed Dec  7 14:36:25 2022


#	Modifying user name:	trannguyen
#	Modification time:	Wed Dec  7 14:36:25 2022

@<TRIPOS>MOLECULE
CHEMBL90555
 63 71 0 0 0
SMALL
GASTEIGER

@<TRIPOS>ATOM
      1 C           9.9830   35.8070    8.9423 C.ar    1  UNL1        0.0262
      2 C          10.0563   35.6651    7.5206 C.ar    1  UNL1       -0.0034
      3 C           9.7191   34.4719    6.8765 C.ar    1  UNL1       -0.0062
      4 C           9.2931   33.3983    7.6292 C.ar    1  UNL1        0.0534
      5 C           9.0453   33.5279    8.9713 C.ar    1  UNL1        0.0512
      6 C           9.4187   34.7031    9.6546 C.ar    1  UNL1        0.1368
      7 N           9.1886   32.2360    6.8511 N.am    1  UNL1       -0.2499
      8 C           8.9911   30.9592    7.3193 C.2     1  UNL1        0.3070
      9 O           8.8555   30.5961    8.4930 O.2     1  UNL1       -0.2646
     10 C           9.2683   32.6385    5.4226 C.3     1  UNL1        0.1236
     11 C           7.8808   32.5902    4.7140 C.3     1  UNL1        0.2320
     12 O           7.6054   31.1611    4.5309 O.3     1  UNL1       -0.3727
     13 C           7.9670   33.2620    3.3101 C.3     1  UNL1        0.2098
     14 C           8.5245   34.7503    3.3393 C.3     1  UNL1        0.0719
     15 C           8.8291   35.1535    1.8818 C.2     1  UNL1       -0.0250
     16 C          10.0196   35.6407    1.4953 C.2     1  UNL1       -0.0132
     17 C          11.1854   35.7519    2.4283 C.3     1  UNL1        0.0985
     18 N          11.0345   34.7762    3.4997 N.3     1  UNL1       -0.2695
     19 C          12.1113   34.7938    4.4703 C.3     1  UNL1        0.0728
     20 C          11.5704   33.7812    5.4583 C.3     1  UNL1        0.0244
     21 C          10.0162   34.0048    5.4580 C.3     1  UNL1        0.0552
     22 C           9.7830   34.9505    4.2626 C.3     1  UNL1        0.0703
     23 H           7.2083   30.8126    5.3490 H       1  UNL1        0.2111
     24 C          15.1842   38.0976   11.5048 C.3     1  UNL1        0.1030
     25 O          15.2674   39.4547   11.0391 O.3     1  UNL1       -0.3854
     26 C          13.7062   37.7754   11.8801 C.3     1  UNL1        0.0297
     27 C          12.8763   37.4406   10.6292 C.3     1  UNL1        0.0196
     28 C          13.5614   36.2484    9.9788 C.3     1  UNL1        0.0722
     29 N          14.7829   36.6965    9.3191 N.3     1  UNL1       -0.2704
     30 C          14.5116   37.6793    8.2391 C.3     1  UNL1        0.0769
     31 C          13.2252   37.4043    7.3921 C.3     1  UNL1        0.0449
     32 C          12.0380   38.3357    7.6459 C.ar    1  UNL1       -0.0071
     33 C          10.9221   38.2548    8.5219 C.ar    1  UNL1        0.0431
     34 N          10.1927   39.4151    8.2985 N.ar    1  UNL1       -0.3560
     35 H           9.3517   39.6845    8.7900 H       1  UNL1        0.1657
     36 C          10.7272   40.1848    7.3024 C.ar    1  UNL1        0.0561
     37 C          10.2814   41.4042    6.7768 C.ar    1  UNL1        0.0169
     38 C          11.0285   41.9802    5.7472 C.ar    1  UNL1        0.0015
     39 C          12.1692   41.3520    5.2594 C.ar    1  UNL1        0.0001
     40 C          12.5997   40.1365    5.8055 C.ar    1  UNL1        0.0012
     41 C          11.8703   39.5396    6.8597 C.ar    1  UNL1        0.0127
     42 C          10.3769   37.1917    9.6081 C.3     1  UNL1        0.1437
     43 C          11.3793   37.1722   10.8683 C.3     1  UNL1        0.0218
     44 C          15.7451   37.1826   10.3478 C.3     1  UNL1        0.0993
     45 H          14.7199   40.0133   11.6158 H       1  UNL1        0.2103
     46 C          17.5225   37.5280   12.4734 C.3     1  UNL1        0.0025
     47 C          16.0881   37.9676   12.7629 C.3     1  UNL1        0.0283
     48 C           9.0266   37.8290   10.2094 C.2     1  UNL1        0.3253
     49 O           7.9108   37.6576    9.7598 O.2     1  UNL1       -0.2494
     50 O           9.2397   38.4018   11.4388 O.3     1  UNL1       -0.4439
     51 C           8.6479   39.6901   11.6426 C.3     1  UNL1        0.2556
     52 O           9.2098   34.7787   11.0172 O.3     1  UNL1       -0.4717
     53 C           9.7656   33.6689   11.7572 C.3     1  UNL1        0.2525
     54 C           6.6215   33.1141    5.4388 C.2     1  UNL1        0.3466
     55 O           6.6368   33.9709    6.3457 O.2     1  UNL1       -0.2473
     56 O           5.4868   32.6479    4.9017 O.3     1  UNL1       -0.4427
     57 C           4.4521   33.5584    4.5232 C.3     1  UNL1        0.2557
     58 C           7.4069   35.7631    3.7935 C.3     1  UNL1        0.0089
     59 C           7.8664   37.0006    4.5807 C.3     1  UNL1        0.0005
     60 O           8.7482   32.3905    2.4276 O.3     1  UNL1       -0.4488
     61 C           8.0029   31.6831    1.5063 C.2     1  UNL1        0.3175
     62 C           8.0517   32.3201    0.1445 C.3     1  UNL1        0.1212
     63 O           7.3632   30.6748    1.7306 O.2     1  UNL1       -0.2501
@<TRIPOS>BOND
     1    46    47    1
     2    24    26    1
     3    24    44    1
     4    24    47    1
     5    24    25    1
     6    25    45    1
     7    26    27    1
     8    27    28    1
     9    27    43    1
    10    28    29    1
    11    29    30    1
    12    29    44    1
    13    30    31    1
    14    31    32    1
    15    32    33   ar
    16    32    41   ar
    17    33    34   ar
    18    33    42    1
    19    34    36   ar
    20    34    35    1
    21    36    37   ar
    22    36    41   ar
    23    37    38   ar
    24    38    39   ar
    25    39    40   ar
    26    40    41   ar
    27    42    43    1
    28    42     1    1
    29    42    48    1
    30    48    49    2
    31    48    50    1
    32    50    51    1
    33     1     2   ar
    34     1     6   ar
    35     2     3   ar
    36     3     4   ar
    37     3    21    1
    38     4     5   ar
    39     4     7    1
    40     5     6   ar
    41     6    52    1
    42    52    53    1
    43     7    10    1
    44     7     8   am
    45     8     9    2
    46    10    11    1
    47    10    21    1
    48    11    13    1
    49    11    12    1
    50    11    54    1
    51    12    23    1
    52    54    55    2
    53    54    56    1
    54    56    57    1
    55    13    14    1
    56    13    60    1
    57    60    61    1
    58    61    62    1
    59    61    63    2
    60    14    15    1
    61    14    22    1
    62    14    58    1
    63    58    59    1
    64    15    16    2
    65    16    17    1
    66    17    18    1
    67    18    19    1
    68    18    22    1
    69    19    20    1
    70    21    20    1
    71    21    22    1



#	Name:			CHEMBL923
#	Creating user name:	trannguyen
#	Creation time:		Wed Dec  7 14:36:25 2022


#	Modifying user name:	trannguyen
#	Modification time:	Wed Dec  7 14:36:25 2022

@<TRIPOS>MOLECULE
CHEMBL923
 22 22 0 0 0
SMALL
GASTEIGER

@<TRIPOS>ATOM
      1 C           2.0893   29.9097   10.0763 C.3     1  UNL1        0.2787
      2 O           2.1966   30.9566   11.0988 O.3     1  UNL1       -0.3665
      3 H           1.7195   30.5652   11.8675 H       1  UNL1        0.2117
      4 O           2.3115   26.9024   11.5903 O.2     1  UNL1       -0.2551
      5 P           2.2098   28.2787   10.8975 P.3     1  UNL1        0.3719
      6 O           1.6690   27.5574    9.5093 O.3     1  UNL1       -0.3217
      7 O           0.7071   28.4938   11.5377 O.3     1  UNL1       -0.3217
      8 H           1.5816   26.6009    9.7152 H       1  UNL1        0.2198
      9 H           0.4343   27.6552   11.9630 H       1  UNL1        0.2198
     10 P           0.4931   30.2721    9.2294 P.3     1  UNL1        0.3719
     11 O          -0.6507   29.3311    9.4035 O.2     1  UNL1       -0.2551
     12 O           0.0565   31.7702    9.6202 O.3     1  UNL1       -0.3217
     13 O           0.8257   30.5044    7.6709 O.3     1  UNL1       -0.3217
     14 H          -0.8691   31.9558    9.3761 H       1  UNL1        0.2198
     15 H           0.0285   30.4854    7.1111 H       1  UNL1        0.2198
     16 C           3.2461   30.1571    9.0646 C.3     1  UNL1        0.0790
     17 C           4.4866   30.8550    9.5775 C.ar    1  UNL1        0.0006
     18 C           5.5438   30.1213   10.1283 C.ar    1  UNL1       -0.0010
     19 C           6.6919   30.7737   10.5789 C.ar    1  UNL1        0.0204
     20 C           6.7519   32.1508   10.4713 C.ar    1  UNL1        0.0989
     21 N           5.7704   32.8938    9.9261 N.ar    1  UNL1       -0.2426
     22 C           4.6834   32.2306    9.4709 C.ar    1  UNL1        0.0947
@<TRIPOS>BOND
     1     4     5    2
     2     5     6    1
     3     5     7    1
     4     5     1    1
     5     6     8    1
     6     7     9    1
     7     1     2    1
     8     1    16    1
     9     1    10    1
    10     2     3    1
    11    16    17    1
    12    17    18   ar
    13    17    22   ar
    14    18    19   ar
    15    19    20   ar
    16    20    21   ar
    17    21    22   ar
    18    10    11    2
    19    10    12    1
    20    10    13    1
    21    12    14    1
    22    13    15    1



#	Name:			CHEMBL92401
#	Creating user name:	trannguyen
#	Creation time:		Wed Dec  7 14:36:25 2022


#	Modifying user name:	trannguyen
#	Modification time:	Wed Dec  7 14:36:25 2022

@<TRIPOS>MOLECULE
CHEMBL92401
 15 15 0 0 0
SMALL
GASTEIGER

@<TRIPOS>ATOM
      1 N           1.8165   31.2370    7.4991 N.am    1  UNL1       -0.2463
      2 C           1.0564   30.9240    8.6193 C.2     1  UNL1        0.2589
      3 O          -0.0484   31.4067    8.8387 O.2     1  UNL1       -0.2688
      4 H           2.6994   30.7769    7.3061 H       1  UNL1        0.1693
      5 C           1.6286   29.8997    9.5401 C.ar    1  UNL1        0.0577
      6 C           3.0191   29.8261    9.6477 C.ar    1  UNL1        0.0252
      7 C           3.5592   28.9115   10.5330 C.ar    1  UNL1        0.0990
      8 N           2.8164   28.0766   11.2896 N.ar    1  UNL1       -0.2423
      9 C           1.4764   28.1466   11.1463 C.ar    1  UNL1        0.0990
     10 C           0.8372   29.0310   10.2930 C.ar    1  UNL1        0.0252
     11 N           1.2912   32.0961    6.5019 N.3     1  UNL1       -0.2312
     12 H           0.5220   31.5866    6.0443 H       1  UNL1        0.1450
     13 C           2.7603   31.1300    4.7897 C.3     1  UNL1        0.0188
     14 C           2.3006   32.4207    5.4736 C.3     1  UNL1        0.0718
     15 C           1.7415   33.3880    4.4266 C.3     1  UNL1        0.0188
@<TRIPOS>BOND
     1    13    14    1
     2    14    15    1
     3    14    11    1
     4    11     1    1
     5    11    12    1
     6     1     2   am
     7     1     4    1
     8     2     3    2
     9     2     5    1
    10     5     6   ar
    11     5    10   ar
    12     6     7   ar
    13     7     8   ar
    14     8     9   ar
    15     9    10   ar



#	Name:			CHEMBL926
#	Creating user name:	trannguyen
#	Creation time:		Wed Dec  7 14:36:25 2022


#	Modifying user name:	trannguyen
#	Modification time:	Wed Dec  7 14:36:25 2022

@<TRIPOS>MOLECULE
CHEMBL926
 26 27 0 0 0
SMALL
GASTEIGER

@<TRIPOS>ATOM
      1 N           5.3979   33.2540    7.3153 N.3     1  UNL1       -0.2982
      2 H           5.3336   34.1177    7.8443 H       1  UNL1        0.1232
      3 C           7.8235   32.6500    7.4152 C.3     1  UNL1        0.0171
      4 C           6.6239   33.0708    6.5569 C.3     1  UNL1        0.0544
      5 C           6.4925   32.0681    5.4065 C.3     1  UNL1        0.0204
      6 C           5.8532   32.4494    4.0661 C.3     1  UNL1        0.0277
      7 C           4.3372   32.4470    4.0080 C.ar    1  UNL1       -0.0219
      8 C           3.6038   31.2973    4.3395 C.ar    1  UNL1       -0.0012
      9 C           2.2664   31.4262    4.7441 C.ar    1  UNL1        0.0363
     10 C           1.6375   32.6641    4.7259 C.ar    1  UNL1        0.1337
     11 O           0.3680   32.7652    5.2066 O.3     1  UNL1       -0.5055
     12 C           2.3074   33.7856    4.2822 C.ar    1  UNL1        0.0363
     13 C           3.6442   33.6666    3.9352 C.ar    1  UNL1       -0.0012
     14 H          -0.0692   33.4915    4.7282 H       1  UNL1        0.2922
     15 C           4.6654   32.1022    7.8720 C.3     1  UNL1        0.0733
     16 C           3.1487   32.0970    8.2926 C.3     1  UNL1        0.0435
     17 C           2.3842   30.9233    8.8379 C.ar    1  UNL1       -0.0176
     18 C           0.9989   30.7920    8.6944 C.ar    1  UNL1       -0.0009
     19 C           0.2708   29.7419    9.2699 C.ar    1  UNL1        0.0394
     20 C           0.9393   28.9191   10.1949 C.ar    1  UNL1        0.1675
     21 O           0.2342   28.0190   10.9271 O.3     1  UNL1       -0.5029
     22 C           2.2893   29.0771   10.3740 C.ar    1  UNL1        0.1672
     23 O           2.9031   28.4344   11.4560 O.3     1  UNL1       -0.5029
     24 C           3.0399   29.9239    9.5838 C.ar    1  UNL1        0.0356
     25 H           0.8944   27.6946   11.5971 H       1  UNL1        0.2923
     26 H           3.6987   28.9159   11.6483 H       1  UNL1        0.2923
@<TRIPOS>BOND
     1     3     4    1
     2     4     5    1
     3     4     1    1
     4     5     6    1
     5     6     7    1
     6     7     8   ar
     7     7    13   ar
     8     8     9   ar
     9     9    10   ar
    10    10    11    1
    11    10    12   ar
    12    11    14    1
    13    12    13   ar
    14     1    15    1
    15     1     2    1
    16    15    16    1
    17    16    17    1
    18    17    18   ar
    19    17    24   ar
    20    18    19   ar
    21    19    20   ar
    22    20    21    1
    23    20    22   ar
    24    21    25    1
    25    22    23    1
    26    22    24   ar
    27    23    26    1



#	Name:			CHEMBL932
#	Creating user name:	trannguyen
#	Creation time:		Wed Dec  7 14:36:25 2022


#	Modifying user name:	trannguyen
#	Modification time:	Wed Dec  7 14:36:25 2022

@<TRIPOS>MOLECULE
CHEMBL932
 40 43 0 0 0
SMALL
GASTEIGER

@<TRIPOS>ATOM
      1 C           7.4774   33.4909    3.1758 C.ar    1  UNL1        0.2216
      2 N           6.1537   33.3737    3.4039 N.ar    1  UNL1       -0.1971
      3 C           5.7080   33.1004    4.6490 C.ar    1  UNL1        0.1540
      4 C           6.5911   32.9035    5.7314 C.ar    1  UNL1        0.1361
      5 N           6.2178   32.5312    6.9658 N.ar    1  UNL1       -0.2092
      6 C           7.0612   32.3633    7.9678 C.ar    1  UNL1        0.2216
      7 N           8.3504   32.6028    7.7929 N.ar    1  UNL1       -0.1971
      8 C           8.7596   32.9552    6.5458 C.ar    1  UNL1        0.1540
      9 C           7.9281   33.1276    5.4255 C.ar    1  UNL1        0.1361
     10 N           8.3513   33.4359    4.1788 N.ar    1  UNL1       -0.2092
     11 N           4.2855   32.9372    4.8012 N.pl3   1  UNL1       -0.2919
     12 C           3.8179   31.5530    4.6105 C.3     1  UNL1        0.0922
     13 C           2.3472   31.4288    5.0335 C.3     1  UNL1        0.0215
     14 C           1.4608   32.4347    4.3059 C.3     1  UNL1        0.0035
     15 C           1.9913   33.8324    4.5069 C.3     1  UNL1        0.0215
     16 C           3.4494   33.9205    4.1075 C.3     1  UNL1        0.0922
     17 N          10.1717   33.1116    6.3657 N.pl3   1  UNL1       -0.2919
     18 C          10.8593   31.8169    6.3612 C.3     1  UNL1        0.0922
     19 C          12.2953   32.0504    5.9100 C.3     1  UNL1        0.0215
     20 C          12.9891   33.0580    6.8262 C.3     1  UNL1        0.0035
     21 C          12.1712   34.3449    6.9666 C.3     1  UNL1        0.0215
     22 C          10.7215   34.0507    7.3518 C.3     1  UNL1        0.0922
     23 N           7.9503   33.6712    1.8684 N.pl3   1  UNL1       -0.2730
     24 C           7.7152   32.5101    0.9706 C.3     1  UNL1        0.1254
     25 O           7.2588   30.1892    1.6163 O.3     1  UNL1       -0.3802
     26 C           8.2653   31.1945    1.5475 C.3     1  UNL1        0.1586
     27 H           7.5932   29.3890    1.1735 H       1  UNL1        0.2105
     28 C           7.6937   35.0094    1.2824 C.3     1  UNL1        0.1254
     29 C           7.2448   34.8728   -0.1814 C.3     1  UNL1        0.1586
     30 O           5.8244   34.7904   -0.2778 O.3     1  UNL1       -0.3802
     31 H           5.5957   34.1687    0.4383 H       1  UNL1        0.2105
     32 N           6.6154   31.9542    9.2269 N.pl3   1  UNL1       -0.2730
     33 C           5.4128   31.0734    9.1688 C.3     1  UNL1        0.1254
     34 C           5.4961   29.9138   10.1812 C.3     1  UNL1        0.1586
     35 O           4.7207   28.8001    9.7362 O.3     1  UNL1       -0.3802
     36 H           3.9521   29.1773    9.2673 H       1  UNL1        0.2105
     37 C           6.4563   33.1657   10.0709 C.3     1  UNL1        0.1254
     38 C           7.4568   33.1563   11.2352 C.3     1  UNL1        0.1586
     39 O           7.0584   32.2998   12.3003 O.3     1  UNL1       -0.3802
     40 H           6.2491   32.6949   12.6769 H       1  UNL1        0.2105
@<TRIPOS>BOND
     1    25    26    1
     2    25    27    1
     3    26    24    1
     4    24    23    1
     5    23    28    1
     6    23     1    1
     7    28    29    1
     8    29    30    1
     9    30    31    1
    10     1     2   ar
    11     1    10   ar
    12     2     3   ar
    13     3    11    1
    14     3     4   ar
    15    11    12    1
    16    11    16    1
    17    12    13    1
    18    13    14    1
    19    14    15    1
    20    15    16    1
    21     4     5   ar
    22     4     9   ar
    23     5     6   ar
    24     6    32    1
    25     6     7   ar
    26    32    33    1
    27    32    37    1
    28    33    34    1
    29    34    35    1
    30    35    36    1
    31    37    38    1
    32    38    39    1
    33    39    40    1
    34     7     8   ar
    35     8    17    1
    36     8     9   ar
    37    17    18    1
    38    17    22    1
    39    18    19    1
    40    19    20    1
    41    20    21    1
    42    21    22    1
    43     9    10   ar



#	Name:			CHEMBL93645
#	Creating user name:	trannguyen
#	Creation time:		Wed Dec  7 14:36:25 2022


#	Modifying user name:	trannguyen
#	Modification time:	Wed Dec  7 14:36:25 2022

@<TRIPOS>MOLECULE
CHEMBL93645
 25 26 0 0 0
SMALL
GASTEIGER

@<TRIPOS>ATOM
      1 C           2.9260   31.8478    7.2106 C.ar    1  UNL1        0.0023
      2 C           2.0991   31.2055    6.2621 C.ar    1  UNL1       -0.0025
      3 C           2.4531   31.1273    4.9180 C.ar    1  UNL1       -0.0002
      4 C           3.6508   31.6797    4.4935 C.ar    1  UNL1        0.0013
      5 C           4.4758   32.3328    5.4113 C.ar    1  UNL1        0.0143
      6 C           4.1204   32.4645    6.7663 C.ar    1  UNL1        0.0448
      7 N           4.8801   33.2802    7.6298 N.pl3   1  UNL1       -0.3114
      8 H           4.5486   34.2355    7.7017 H       1  UNL1        0.1523
      9 C           5.8814   33.0007    8.5989 C.ar    1  UNL1        0.0697
     10 C           5.7339   33.5553    9.8945 C.ar    1  UNL1        0.0718
     11 CL          4.3626   34.5487   10.2749 Cl      1  UNL1       -0.0809
     12 C           6.6823   33.3558   10.9053 C.ar    1  UNL1        0.0127
     13 C           7.8062   32.5783   10.6567 C.ar    1  UNL1        0.0018
     14 C           7.9773   32.0085    9.3981 C.ar    1  UNL1        0.0127
     15 C           7.0320   32.2143    8.3773 C.ar    1  UNL1        0.0718
     16 CL          7.4711   31.5799    6.8258 Cl      1  UNL1       -0.0809
     17 C           2.4356   31.8968    8.6509 C.3     1  UNL1        0.1371
     18 C           1.1664   31.0934    8.8957 C.2     1  UNL1        0.3220
     19 O           0.0301   31.5411    8.8686 O.2     1  UNL1       -0.2497
     20 O           1.4594   29.7891    9.1953 O.3     1  UNL1       -0.4359
     21 C           1.9873   29.5858   10.5213 C.3     1  UNL1        0.3165
     22 O           1.8548   27.7347   12.0713 O.2     1  UNL1       -0.2461
     23 C           1.3258   28.3943   11.2007 C.2     1  UNL1        0.3590
     24 O           0.0770   28.1273   10.7441 O.3     1  UNL1       -0.4776
     25 H          -0.1883   28.7483   10.0382 H       1  UNL1        0.2952
@<TRIPOS>BOND
     1    22    23    2
     2    23    24    1
     3    23    21    1
     4    24    25    1
     5    21    20    1
     6    20    18    1
     7    18    19    2
     8    18    17    1
     9    17     1    1
    10     1     2   ar
    11     1     6   ar
    12     2     3   ar
    13     3     4   ar
    14     4     5   ar
    15     5     6   ar
    16     6     7    1
    17     7     9    1
    18     7     8    1
    19     9    10   ar
    20     9    15   ar
    21    10    11    1
    22    10    12   ar
    23    12    13   ar
    24    13    14   ar
    25    14    15   ar
    26    15    16    1



#	Name:			CHEMBL9419
#	Creating user name:	trannguyen
#	Creation time:		Wed Dec  7 14:36:25 2022


#	Modifying user name:	trannguyen
#	Modification time:	Wed Dec  7 14:36:25 2022

@<TRIPOS>MOLECULE
CHEMBL9419
 13 13 0 0 0
SMALL
GASTEIGER

@<TRIPOS>ATOM
      1 C           2.3864   30.0618   10.1653 C.ar    1  UNL1        0.0533
      2 C           3.7370   30.1432    9.8194 C.ar    1  UNL1        0.0149
      3 C           4.5364   28.9941    9.7986 C.ar    1  UNL1        0.0044
      4 C           3.9939   27.7528   10.1245 C.ar    1  UNL1        0.0367
      5 C           2.6506   27.6733   10.4696 C.ar    1  UNL1        0.1349
      6 O           2.0711   26.4826   10.7977 O.3     1  UNL1       -0.5055
      7 C           1.8480   28.8112   10.4922 C.ar    1  UNL1        0.0513
      8 H           2.7451   25.7850   10.7402 H       1  UNL1        0.2922
      9 C           0.6401   33.4050   10.2753 C.3     1  UNL1        0.0949
     10 C           1.8535   32.5092   10.2513 C.2     1  UNL1        0.2266
     11 O           2.9827   32.9866   10.2430 O.2     1  UNL1       -0.2748
     12 N           1.5140   31.1696   10.2092 N.am    1  UNL1       -0.2838
     13 H           0.5259   30.9498   10.2013 H       1  UNL1        0.1549
@<TRIPOS>BOND
     1     9    10    1
     2    10    11    2
     3    10    12   am
     4    12     1    1
     5    12    13    1
     6     1     2   ar
     7     1     7   ar
     8     2     3   ar
     9     3     4   ar
    10     4     5   ar
    11     5     6    1
    12     5     7   ar
    13     6     8    1



#	Name:			CHEMBL95764
#	Creating user name:	trannguyen
#	Creation time:		Wed Dec  7 14:36:25 2022


#	Modifying user name:	trannguyen
#	Modification time:	Wed Dec  7 14:36:25 2022

@<TRIPOS>MOLECULE
CHEMBL95764
 14 13 0 0 0
SMALL
GASTEIGER

@<TRIPOS>ATOM
      1 N           2.1287   30.3298   10.9822 N.3     1  UNL1       -0.2779
      2 H           2.7158   30.6674   11.7558 H       1  UNL1        0.1243
      3 C           2.5939   28.9804   10.5758 C.3     1  UNL1        0.1800
      4 O           2.1300   26.8987   11.7514 O.2     1  UNL1       -0.2487
      5 C           1.7034   27.8952   11.1713 C.2     1  UNL1        0.3301
      6 O           0.3850   28.1054   10.9490 O.3     1  UNL1       -0.4792
      7 H           0.2793   28.9653   10.4767 H       1  UNL1        0.2951
      8 C           2.3375   31.2696    9.8470 C.3     1  UNL1        0.1861
      9 P           0.7699   31.5460    9.0002 P.3     1  UNL1        0.3527
     10 O          -0.1903   30.4060    8.9288 O.2     1  UNL1       -0.2567
     11 O           0.1031   32.8394    9.6733 O.3     1  UNL1       -0.3227
     12 O           1.1253   32.1115    7.5394 O.3     1  UNL1       -0.3227
     13 H          -0.8412   32.9366    9.4534 H       1  UNL1        0.2198
     14 H           0.3455   32.1305    6.9518 H       1  UNL1        0.2198
@<TRIPOS>BOND
     1     4     5    2
     2     5     6    1
     3     5     3    1
     4     6     7    1
     5     3     1    1
     6     1     8    1
     7     1     2    1
     8     8     9    1
     9     9    10    2
    10     9    11    1
    11     9    12    1
    12    11    13    1
    13    12    14    1



#	Name:			CHEMBL959
#	Creating user name:	trannguyen
#	Creation time:		Wed Dec  7 14:36:25 2022


#	Modifying user name:	trannguyen
#	Modification time:	Wed Dec  7 14:36:25 2022

@<TRIPOS>MOLECULE
CHEMBL959
 15 17 0 0 0
SMALL
GASTEIGER

@<TRIPOS>ATOM
      1 C           3.4419   32.7460    6.1244 C.3     1  UNL1        0.0130
      2 C           2.7264   31.4340    5.6786 C.3     1  UNL1        0.0013
      3 C           2.9391   31.1624    4.1802 C.3     1  UNL1        0.0000
      4 C           2.3760   32.3397    3.3695 C.3     1  UNL1        0.0000
      5 C           3.0980   33.6386    3.7597 C.3     1  UNL1        0.0000
      6 C           4.6008   33.4864    3.4783 C.3     1  UNL1        0.0000
      7 C           5.1701   32.3136    4.2917 C.3     1  UNL1        0.0000
      8 C           4.4417   31.0204    3.8998 C.3     1  UNL1        0.0000
      9 C           4.9541   32.5884    5.7900 C.3     1  UNL1        0.0013
     10 C           2.8837   33.9117    5.2607 C.3     1  UNL1        0.0013
     11 C           4.2914   32.2963    8.5525 C.3     1  UNL1        0.0168
     12 C           3.2395   32.9664    7.6617 C.3     1  UNL1        0.0507
     13 N           3.1883   34.3924    8.0104 N.3     1  UNL1       -0.3222
     14 H           4.1037   34.8171    7.8681 H       1  UNL1        0.1188
     15 H           2.9866   34.4941    9.0047 H       1  UNL1        0.1188
@<TRIPOS>BOND
     1    11    12    1
     2    12    13    1
     3    12     1    1
     4    13    14    1
     5    13    15    1
     6     1     2    1
     7     1     9    1
     8     1    10    1
     9     2     3    1
    10     3     4    1
    11     3     8    1
    12     4     5    1
    13     5     6    1
    14     5    10    1
    15     6     7    1
    16     7     8    1
    17     7     9    1



#	Name:			CHEMBL960
#	Creating user name:	trannguyen
#	Creation time:		Wed Dec  7 14:36:25 2022


#	Modifying user name:	trannguyen
#	Modification time:	Wed Dec  7 14:36:25 2022

@<TRIPOS>MOLECULE
CHEMBL960
 20 21 0 0 0
SMALL
GASTEIGER

@<TRIPOS>ATOM
      1 C           1.7718   30.7284    9.9182 C.2     1  UNL1        0.2539
      2 O           1.5521   30.8728    8.7219 O.2     1  UNL1       -0.2697
      3 N           1.8307   31.7436   10.8585 N.am    1  UNL1       -0.2803
      4 H           2.1291   31.4913   11.7907 H       1  UNL1        0.1552
      5 C           4.6149   29.1465    9.9718 C.3     1  UNL1        0.0755
      6 C           3.2682   28.7742   10.4527 C.ar    1  UNL1        0.1592
      7 O           3.1541   27.5555   11.0465 O.2     1  UNL1       -0.3576
      8 N           1.8429   27.3583   11.4440 N.ar    1  UNL1       -0.0756
      9 C           1.1950   28.4633   11.0749 C.ar    1  UNL1        0.1479
     10 C           2.0436   29.4100   10.4608 C.ar    1  UNL1        0.1089
     11 C           1.6175   33.1228   10.6420 C.ar    1  UNL1        0.0505
     12 C           2.6268   34.0256   10.3051 C.ar    1  UNL1        0.0146
     13 C           2.3360   35.3798   10.1010 C.ar    1  UNL1        0.0051
     14 C           1.0266   35.8590   10.2264 C.ar    1  UNL1        0.0715
     15 C           0.0123   34.9522   10.5632 C.ar    1  UNL1        0.0051
     16 C           0.3061   33.5987   10.7674 C.ar    1  UNL1        0.0146
     17 C           0.7041   37.3163   10.0023 C.3     1  UNL1        0.4186
     18 F           0.5577   37.6482    8.6893 F       1  UNL1       -0.1659
     19 F          -0.4540   37.6911   10.6131 F       1  UNL1       -0.1659
     20 F           1.6689   38.1439   10.4909 F       1  UNL1       -0.1659
@<TRIPOS>BOND
     1     5     6    1
     2     6     7   ar
     3     6    10   ar
     4     7     8   ar
     5     8     9   ar
     6     9    10   ar
     7    10     1    1
     8     1     2    2
     9     1     3   am
    10     3    11    1
    11     3     4    1
    12    11    12   ar
    13    11    16   ar
    14    12    13   ar
    15    13    14   ar
    16    14    17    1
    17    14    15   ar
    18    17    18    1
    19    17    19    1
    20    17    20    1
    21    15    16   ar



#	Name:			CHEMBL972
#	Creating user name:	trannguyen
#	Creation time:		Wed Dec  7 14:36:25 2022


#	Modifying user name:	trannguyen
#	Modification time:	Wed Dec  7 14:36:25 2022

@<TRIPOS>MOLECULE
CHEMBL972
 14 14 0 0 0
SMALL
GASTEIGER

@<TRIPOS>ATOM
      1 C           3.6781   32.6349    8.5351 C.3     1  UNL1        0.0628
      2 C           3.2631   33.7053    9.5588 C.3     1  UNL1        0.0177
      3 N           4.2470   33.3091    7.3305 N.3     1  UNL1       -0.2614
      4 C           5.4900   32.7105    6.8349 C.3     1  UNL1        0.0904
      5 C           3.3114   33.4737    6.2054 C.3     1  UNL1        0.1508
      6 C           2.3574   31.1729    5.2486 C.1     1  UNL1       -0.0127
      7 C           2.8006   32.1973    5.6775 C.1     1  UNL1       -0.0599
      8 C           4.5644   31.5233    9.1770 C.3     1  UNL1        0.0423
      9 C           3.8679   30.2114    9.5139 C.ar    1  UNL1       -0.0208
     10 C           4.6172   29.0828    9.8771 C.ar    1  UNL1       -0.0042
     11 C           3.9897   27.8770   10.2092 C.ar    1  UNL1       -0.0003
     12 C           2.6010   27.7792   10.1878 C.ar    1  UNL1       -0.0000
     13 C           1.8393   28.8924    9.8412 C.ar    1  UNL1       -0.0003
     14 C           2.4664   30.1032    9.5153 C.ar    1  UNL1       -0.0042
@<TRIPOS>BOND
     1     6     7    3
     2     7     5    1
     3     5     3    1
     4     3     4    1
     5     1     2    1
     6     1     8    1
     7     1     3    1
     8     8     9    1
     9     9    10   ar
    10     9    14   ar
    11    10    11   ar
    12    11    12   ar
    13    12    13   ar
    14    13    14   ar



#	Name:			CHEMBL976
#	Creating user name:	trannguyen
#	Creation time:		Wed Dec  7 14:36:25 2022


#	Modifying user name:	trannguyen
#	Modification time:	Wed Dec  7 14:36:25 2022

@<TRIPOS>MOLECULE
CHEMBL976
 23 26 0 0 0
SMALL
GASTEIGER

@<TRIPOS>ATOM
      1 O           3.1583   33.2217    9.9982 O.2     1  UNL1       -0.2749
      2 C           4.1255   32.6103    9.5427 C.2     1  UNL1        0.2256
      3 N           5.4194   33.1217    9.6718 N.am    1  UNL1       -0.2692
      4 C           5.5273   34.3256   10.4975 C.3     1  UNL1        0.1794
      5 C           6.9099   34.9416   10.7441 C.2     1  UNL1        0.2462
      6 O           7.0121   36.0217   11.3307 O.2     1  UNL1       -0.2730
      7 N           8.0139   34.1717   10.4096 N.am    1  UNL1       -0.2740
      8 C           9.3459   34.6754   10.7133 C.3     1  UNL1        0.0984
      9 C          10.2442   33.5349   11.1725 C.3     1  UNL1        0.0476
     10 C          10.2462   32.4188   10.1599 C.ar    1  UNL1       -0.0228
     11 C          11.3426   31.5457   10.1028 C.ar    1  UNL1       -0.0045
     12 C          11.3781   30.5184    9.1639 C.ar    1  UNL1       -0.0003
     13 C          10.3232   30.3597    8.2715 C.ar    1  UNL1       -0.0003
     14 C           9.2192   31.2128    8.3329 C.ar    1  UNL1       -0.0029
     15 C           9.1457   32.2339    9.2975 C.ar    1  UNL1       -0.0065
     16 C           7.9080   33.1309    9.3788 C.3     1  UNL1        0.1174
     17 C           6.6242   32.2957    9.5800 C.3     1  UNL1        0.1181
     18 C           3.9327   31.3032    8.7589 C.3     1  UNL1        0.0767
     19 C           3.6820   30.0966    9.6805 C.3     1  UNL1        0.0091
     20 C           2.2641   30.0098   10.2418 C.3     1  UNL1        0.0005
     21 C           1.2093   30.1477    9.1527 C.3     1  UNL1        0.0000
     22 C           1.4185   31.4149    8.3326 C.3     1  UNL1        0.0005
     23 C           2.8169   31.4628    7.7164 C.3     1  UNL1        0.0091
@<TRIPOS>BOND
     1     1     2    2
     2     2    18    1
     3     2     3   am
     4    18    19    1
     5    18    23    1
     6    19    20    1
     7    20    21    1
     8    21    22    1
     9    22    23    1
    10     3     4    1
    11     3    17    1
    12     4     5    1
    13     5     6    2
    14     5     7   am
    15     7     8    1
    16     7    16    1
    17     8     9    1
    18     9    10    1
    19    10    11   ar
    20    10    15   ar
    21    11    12   ar
    22    12    13   ar
    23    13    14   ar
    24    14    15   ar
    25    15    16    1
    26    16    17    1



#	Name:			CHEMBL989
#	Creating user name:	trannguyen
#	Creation time:		Wed Dec  7 14:36:25 2022


#	Modifying user name:	trannguyen
#	Modification time:	Wed Dec  7 14:36:25 2022

@<TRIPOS>MOLECULE
CHEMBL989
 34 38 0 0 0
SMALL
GASTEIGER

@<TRIPOS>ATOM
      1 C          10.8686   35.0309   10.5962 C.3     1  UNL1        0.0612
      2 C          10.0001   33.8068   10.3172 C.3     1  UNL1        0.1877
      3 C           8.9795   33.6413   11.4395 C.3     1  UNL1        0.0612
      4 O          10.8261   32.6432   10.2647 O.3     1  UNL1       -0.3339
      5 C          10.6554   32.0824    8.9647 C.3     1  UNL1        0.1491
      6 C           9.5969   30.9662    8.9910 C.3     1  UNL1        0.0327
      7 C           8.4744   31.3580    7.9939 C.3     1  UNL1        0.0080
      8 C           7.1416   31.7376    8.7035 C.3     1  UNL1        0.0363
      9 C           6.5300   30.4764    9.3490 C.3     1  UNL1        0.0423
     10 C           5.1905   30.7515   10.0110 C.3     1  UNL1        0.1799
     11 F           4.7335   29.5745   10.5255 F       1  UNL1       -0.2328
     12 C           4.2357   31.3210    9.0008 C.2     1  UNL1       -0.0034
     13 C           3.0907   30.6822    8.6985 C.2     1  UNL1        0.0365
     14 C           2.1671   31.1832    7.6635 C.2     1  UNL1        0.1949
     15 O           1.1142   30.6121    7.4143 O.2     1  UNL1       -0.2866
     16 C           2.5710   32.4004    6.9362 C.2     1  UNL1        0.0378
     17 C           3.7072   33.0438    7.2385 C.2     1  UNL1       -0.0170
     18 C           4.6950   32.6260    8.3313 C.3     1  UNL1        0.0662
     19 C           4.6391   33.7420    9.3998 C.3     1  UNL1        0.0113
     20 C           6.1441   32.4056    7.7176 C.3     1  UNL1        0.1646
     21 F           5.9971   31.5145    6.6729 F       1  UNL1       -0.2369
     22 C           6.7935   33.6815    7.1277 C.3     1  UNL1        0.1409
     23 O           7.0001   34.6993    8.1005 O.3     1  UNL1       -0.3817
     24 C           8.0953   33.3672    6.3864 C.3     1  UNL1        0.0348
     25 C           9.1223   32.4561    7.1027 C.3     1  UNL1        0.0343
     26 C           9.9289   31.7421    5.9812 C.3     1  UNL1        0.0029
     27 C          10.0757   33.1867    8.1010 C.3     1  UNL1        0.1727
     28 O           9.3170   33.9546    9.0595 O.3     1  UNL1       -0.3297
     29 H           7.9163   34.6387    8.4432 H       1  UNL1        0.2104
     30 C          11.0929   34.1190    7.4030 C.2     1  UNL1        0.2065
     31 O          12.2996   33.8472    7.3856 O.2     1  UNL1       -0.2909
     32 C          10.6054   35.3762    6.6954 C.3     1  UNL1        0.2045
     33 O           9.7282   36.1291    7.5070 O.3     1  UNL1       -0.3749
     34 H           8.9189   35.5957    7.6206 H       1  UNL1        0.2110
@<TRIPOS>BOND
     1     1     2    1
     2     2     4    1
     3     2    28    1
     4     2     3    1
     5     4     5    1
     6     5     6    1
     7     5    27    1
     8     6     7    1
     9     7     8    1
    10     7    25    1
    11     8     9    1
    12     8    20    1
    13     9    10    1
    14    10    12    1
    15    10    11    1
    16    12    13    2
    17    12    18    1
    18    13    14    1
    19    14    16    1
    20    14    15    2
    21    16    17    2
    22    17    18    1
    23    18    20    1
    24    18    19    1
    25    20    22    1
    26    20    21    1
    27    22    24    1
    28    22    23    1
    29    23    29    1
    30    24    25    1
    31    25    27    1
    32    25    26    1
    33    27    28    1
    34    27    30    1
    35    30    31    2
    36    30    32    1
    37    32    33    1
    38    33    34    1



#	Name:			CHEMBL991
#	Creating user name:	trannguyen
#	Creation time:		Wed Dec  7 14:36:25 2022


#	Modifying user name:	trannguyen
#	Modification time:	Wed Dec  7 14:36:25 2022

@<TRIPOS>MOLECULE
CHEMBL991
 18 19 0 0 0
SMALL
GASTEIGER

@<TRIPOS>ATOM
      1 C           4.7089   28.2782   10.3736 C.3     1  UNL1        0.0376
      2 C           3.3465   28.7855   10.0355 C.ar    1  UNL1        0.0515
      3 C           3.1163   29.9042    9.3408 C.ar    1  UNL1        0.0826
      4 N           1.8457   30.3329    9.0025 N.ar    1  UNL1       -0.2539
      5 C           0.7183   29.6371    9.4092 C.ar    1  UNL1        0.3324
      6 O          -0.4377   29.9711    9.1558 O.2     1  UNL1       -0.2464
      7 N           0.9544   28.5068   10.1481 N.ar    1  UNL1       -0.2746
      8 H           0.1459   27.9831   10.4436 H       1  UNL1        0.1734
      9 C           2.1769   27.9959   10.4824 C.ar    1  UNL1        0.2584
     10 O           2.2994   26.9554   11.1144 O.2     1  UNL1       -0.2674
     11 C           1.6547   31.5032    8.1581 C.3     1  UNL1        0.2322
     12 C           2.8986   32.3163    8.0647 C.2     1  UNL1        0.0250
     13 C           3.2024   32.5320    6.7841 C.2     1  UNL1        0.0053
     14 C           2.1658   31.9087    5.9132 C.3     1  UNL1        0.1686
     15 O           1.3913   31.0712    6.8038 O.3     1  UNL1       -0.3274
     16 C           2.7029   31.0527    4.7585 C.3     1  UNL1        0.1713
     17 O           2.4114   31.6324    3.4860 O.3     1  UNL1       -0.3792
     18 H           2.8589   32.4982    3.4981 H       1  UNL1        0.2106
@<TRIPOS>BOND
     1     1     2    1
     2     2     3   ar
     3     2     9   ar
     4     3     4   ar
     5     4    11    1
     6     4     5   ar
     7    11    12    1
     8    11    15    1
     9    12    13    2
    10    13    14    1
    11    14    15    1
    12    14    16    1
    13    16    17    1
    14    17    18    1
    15     5     6    2
    16     5     7   ar
    17     7     8    1
    18     7     9   ar
    19     9    10    2



#	Name:			CHEMBL998
#	Creating user name:	trannguyen
#	Creation time:		Wed Dec  7 14:36:25 2022


#	Modifying user name:	trannguyen
#	Modification time:	Wed Dec  7 14:36:25 2022

@<TRIPOS>MOLECULE
CHEMBL998
 27 30 0 0 0
SMALL
GASTEIGER

@<TRIPOS>ATOM
      1 C           9.5017   32.8508   10.1969 C.2     1  UNL1        0.4049
      2 O           9.6271   33.1923   11.3640 O.2     1  UNL1       -0.2262
      3 N           8.2801   32.6178    9.5895 N.am    1  UNL1       -0.2454
      4 C           8.1427   32.5713    8.1306 C.3     1  UNL1        0.1011
      5 C           6.9374   31.7332    7.7008 C.3     1  UNL1        0.0437
      6 C           5.6768   32.2328    8.3950 C.2     1  UNL1       -0.0394
      7 C           4.5650   32.7005    7.7663 C.2     1  UNL1        0.0093
      8 C           3.3816   33.0816    8.5708 C.ar    1  UNL1       -0.0031
      9 C           3.3583   34.2695    9.3142 C.ar    1  UNL1        0.0006
     10 C           2.2352   34.5967   10.0748 C.ar    1  UNL1        0.0114
     11 C           1.1330   33.7439   10.0806 C.ar    1  UNL1        0.0574
     12 CL         -0.2499   34.1453   11.0234 Cl      1  UNL1       -0.0823
     13 C           1.1352   32.5723    9.3220 C.ar    1  UNL1        0.0071
     14 C           2.2580   32.2372    8.5533 C.ar    1  UNL1       -0.0210
     15 C           2.2707   31.0038    7.6833 C.3     1  UNL1        0.0311
     16 C           2.2679   31.3495    6.1875 C.3     1  UNL1        0.0326
     17 C           3.4389   32.0970    5.5802 C.ar    1  UNL1       -0.0042
     18 C           3.4642   32.2089    4.1786 C.ar    1  UNL1       -0.0012
     19 C           4.4750   32.9184    3.5407 C.ar    1  UNL1        0.0204
     20 C           5.4385   33.5183    4.3241 C.ar    1  UNL1        0.0988
     21 N           5.4575   33.4439    5.6695 N.ar    1  UNL1       -0.2442
     22 C           4.4752   32.7266    6.2831 C.ar    1  UNL1        0.0767
     23 C           5.8608   32.1268    9.9030 C.3     1  UNL1        0.0437
     24 C           7.0746   32.9483   10.3464 C.3     1  UNL1        0.1011
     25 O          10.5495   32.6659    9.3468 O.3     1  UNL1       -0.4345
     26 C          10.9432   30.3040    9.0573 C.3     1  UNL1        0.0513
     27 C          11.4335   31.5922    9.6917 C.3     1  UNL1        0.2102
@<TRIPOS>BOND
     1    26    27    1
     2    27    25    1
     3    25     1    1
     4     1     2    2
     5     1     3   am
     6     3     4    1
     7     3    24    1
     8     4     5    1
     9     5     6    1
    10     6     7    2
    11     6    23    1
    12     7     8    1
    13     7    22    1
    14     8     9   ar
    15     8    14   ar
    16     9    10   ar
    17    10    11   ar
    18    11    12    1
    19    11    13   ar
    20    13    14   ar
    21    14    15    1
    22    15    16    1
    23    16    17    1
    24    17    18   ar
    25    17    22   ar
    26    18    19   ar
    27    19    20   ar
    28    20    21   ar
    29    21    22   ar
    30    23    24    1



