#	Name:			CHEMBL1025
#	Creating user name:	trannguyen
#	Creation time:		Thu Dec  1 16:45:11 2022


#	Modifying user name:	trannguyen
#	Modification time:	Thu Dec  1 16:45:11 2022

@<TRIPOS>MOLECULE
CHEMBL1025
 11 10 0 0 0
SMALL
GASTEIGER

@<TRIPOS>ATOM
      1 P          -7.5460   73.6573   72.9591 P.3     1  UNL1        0.5166
      2 O          -7.3179   75.1341   72.6208 O.2     1  UNL1       -0.2226
      3 F          -6.2340   72.8979   72.4465 F       1  UNL1       -0.1326
      4 O          -6.8216   73.9015   74.5111 O.3     1  UNL1       -0.2726
      5 C          -7.4978   73.2707   76.7089 C.3     1  UNL1        0.0327
      6 C          -7.6811   74.2843   75.5827 C.3     1  UNL1        0.1265
      7 C          -7.3590   75.6856   76.0890 C.3     1  UNL1        0.0327
      8 O          -8.2703   73.4132   71.4071 O.3     1  UNL1       -0.2726
      9 C          -9.6740   73.1792   71.4149 C.3     1  UNL1        0.1265
     10 C         -10.0811   72.3274   70.2182 C.3     1  UNL1        0.0327
     11 C         -10.0153   72.4588   72.7140 C.3     1  UNL1        0.0327
@<TRIPOS>BOND
     1     5     6    1
     2     6     7    1
     3     6     4    1
     4     4     1    1
     5     1     2    2
     6     1     3    1
     7     1     8    1
     8     8     9    1
     9     9    10    1
    10     9    11    1



#	Name:			CHEMBL108434
#	Creating user name:	trannguyen
#	Creation time:		Thu Dec  1 16:45:11 2022


#	Modifying user name:	trannguyen
#	Modification time:	Thu Dec  1 16:45:11 2022

@<TRIPOS>MOLECULE
CHEMBL108434
 26 28 0 0 0
SMALL
GASTEIGER

@<TRIPOS>ATOM
      1 C           5.7098   69.3802   63.0656 C.3     1  UNL1        0.0518
      2 C           5.1813   69.5357   64.4638 C.ar    1  UNL1        0.0574
      3 N           6.0874   70.0041   65.3572 N.ar    1  UNL1       -0.2498
      4 C           5.7168   70.2112   66.6242 C.ar    1  UNL1        0.0842
      5 C           6.6587   70.7440   67.4981 C.ar    1  UNL1        0.0193
      6 C           6.3683   71.0045   68.8378 C.ar    1  UNL1        0.0039
      7 C           5.1036   70.7136   69.3227 C.ar    1  UNL1        0.0298
      8 C           4.1540   70.1749   68.4592 C.ar    1  UNL1        0.1427
      9 F           2.9473   69.8815   68.9763 F       1  UNL1       -0.2041
     10 C           4.4229   69.9186   67.0943 C.ar    1  UNL1        0.0577
     11 C           3.4916   69.3753   66.1634 C.ar    1  UNL1        0.0431
     12 N           2.1419   69.1700   66.5480 N.pl3   1  UNL1       -0.3571
     13 C           3.8535   69.2435   64.8057 C.ar    1  UNL1        0.0153
     14 H           2.0271   69.0920   67.5585 H       1  UNL1        0.1423
     15 H           1.6986   68.3904   66.0687 H       1  UNL1        0.1423
     16 C           2.8471   68.8226   63.7559 C.3     1  UNL1        0.0886
     17 S           3.5472   67.6055   62.5867 S.3     1  UNL1       -0.1021
     18 C           3.6838   66.1326   63.7108 C.3     1  UNL1        0.2188
     19 C           4.0310   64.9084   62.8503 C.3     1  UNL1        0.0489
     20 C           4.7818   64.0273   63.8220 C.3     1  UNL1        0.0357
     21 C           5.5480   65.0357   64.6494 C.3     1  UNL1        0.1436
     22 O           4.8619   66.2939   64.5499 O.3     1  UNL1       -0.3405
     23 C           2.4033   65.8625   64.5841 C.3     1  UNL1        0.4286
     24 F           2.5672   66.1890   65.8883 F       1  UNL1       -0.1668
     25 F           1.3252   66.5608   64.1505 F       1  UNL1       -0.1668
     26 F           2.0507   64.5524   64.5564 F       1  UNL1       -0.1668
@<TRIPOS>BOND
     1     1     2    1
     2     2     3   ar
     3     2    13   ar
     4     3     4   ar
     5     4     5   ar
     6     4    10   ar
     7     5     6   ar
     8     6     7   ar
     9     7     8   ar
    10     8     9    1
    11     8    10   ar
    12    10    11   ar
    13    11    12    1
    14    11    13   ar
    15    12    14    1
    16    12    15    1
    17    13    16    1
    18    16    17    1
    19    17    18    1
    20    18    23    1
    21    18    19    1
    22    18    22    1
    23    23    24    1
    24    23    25    1
    25    23    26    1
    26    19    20    1
    27    20    21    1
    28    21    22    1



#	Name:			CHEMBL108696
#	Creating user name:	trannguyen
#	Creation time:		Thu Dec  1 16:45:11 2022


#	Modifying user name:	trannguyen
#	Modification time:	Thu Dec  1 16:45:11 2022

@<TRIPOS>MOLECULE
CHEMBL108696
 30 32 0 0 0
SMALL
GASTEIGER

@<TRIPOS>ATOM
      1 C           2.3612   60.4526   75.7099 C.3     1  UNL1        0.0518
      2 C           1.3235   61.0847   76.5949 C.ar    1  UNL1        0.0574
      3 N           0.6615   62.1159   76.0158 N.ar    1  UNL1       -0.2498
      4 C          -0.3082   62.7416   76.6918 C.ar    1  UNL1        0.0842
      5 C          -0.9430   63.8159   76.0760 C.ar    1  UNL1        0.0193
      6 C          -1.9691   64.5289   76.6984 C.ar    1  UNL1        0.0039
      7 C          -2.3776   64.1551   77.9675 C.ar    1  UNL1        0.0298
      8 C          -1.7492   63.0828   78.5933 C.ar    1  UNL1        0.1427
      9 F          -2.1948   62.7351   79.8131 F       1  UNL1       -0.2041
     10 C          -0.6990   62.3550   77.9834 C.ar    1  UNL1        0.0577
     11 C          -0.0207   61.2520   78.5786 C.ar    1  UNL1        0.0431
     12 N          -0.2778   60.9316   79.9262 N.pl3   1  UNL1       -0.3571
     13 C           1.0484   60.6301   77.8928 C.ar    1  UNL1        0.0153
     14 H          -1.1870   61.2293   80.2750 H       1  UNL1        0.1423
     15 H          -0.0031   60.0095   80.2451 H       1  UNL1        0.1423
     16 C           1.8225   59.4766   78.4947 C.3     1  UNL1        0.0865
     17 S           0.9208   57.8966   78.6480 S.3     1  UNL1       -0.1306
     18 C           0.8576   57.4040   76.9018 C.3     1  UNL1        0.0841
     19 C          -0.5556   57.1112   76.4477 C.ar    1  UNL1       -0.0112
     20 C          -0.9518   55.7889   76.1926 C.ar    1  UNL1       -0.0034
     21 C          -2.2376   55.5129   75.7327 C.ar    1  UNL1       -0.0002
     22 C          -3.1429   56.5540   75.5296 C.ar    1  UNL1        0.0031
     23 C          -2.7810   57.8821   75.8018 C.ar    1  UNL1        0.0428
     24 C          -1.4854   58.1551   76.2615 C.ar    1  UNL1       -0.0003
     25 C          -3.7999   58.9347   75.5073 C.2     1  UNL1        0.2666
     26 O          -3.5874   59.6710   74.5415 O.2     1  UNL1       -0.2825
     27 C          -5.0571   59.0554   76.3576 C.3     1  UNL1        0.4554
     28 F          -5.8176   57.9299   76.4372 F       1  UNL1       -0.1631
     29 F          -4.7674   59.4006   77.6450 F       1  UNL1       -0.1631
     30 F          -5.8895   60.0288   75.8878 F       1  UNL1       -0.1631
@<TRIPOS>BOND
     1     1     2    1
     2     2     3   ar
     3     2    13   ar
     4     3     4   ar
     5     4     5   ar
     6     4    10   ar
     7     5     6   ar
     8     6     7   ar
     9     7     8   ar
    10     8     9    1
    11     8    10   ar
    12    10    11   ar
    13    11    12    1
    14    11    13   ar
    15    12    14    1
    16    12    15    1
    17    13    16    1
    18    16    17    1
    19    17    18    1
    20    18    19    1
    21    19    20   ar
    22    19    24   ar
    23    20    21   ar
    24    21    22   ar
    25    22    23   ar
    26    23    25    1
    27    23    24   ar
    28    25    26    2
    29    25    27    1
    30    27    28    1
    31    27    29    1
    32    27    30    1



#	Name:			CHEMBL109152
#	Creating user name:	trannguyen
#	Creation time:		Thu Dec  1 16:45:11 2022


#	Modifying user name:	trannguyen
#	Modification time:	Thu Dec  1 16:45:11 2022

@<TRIPOS>MOLECULE
CHEMBL109152
 27 29 0 0 0
SMALL
GASTEIGER

@<TRIPOS>ATOM
      1 C           1.6172   59.9305   78.2149 C.ar    1  UNL1        0.0153
      2 C           2.0725   58.6247   78.4648 C.ar    1  UNL1        0.0574
      3 C           1.3289   57.3641   78.1409 C.3     1  UNL1        0.0518
      4 N           3.2477   58.3527   79.0917 N.ar    1  UNL1       -0.2498
      5 C           4.0523   59.3404   79.4722 C.ar    1  UNL1        0.0842
      6 C           5.2066   58.9868   80.1632 C.ar    1  UNL1        0.0193
      7 C           6.1254   59.9366   80.6034 C.ar    1  UNL1        0.0039
      8 C           5.8901   61.2723   80.3257 C.ar    1  UNL1        0.0298
      9 C           4.7312   61.6323   79.6363 C.ar    1  UNL1        0.1427
     10 F           4.5536   62.9385   79.3729 F       1  UNL1       -0.2041
     11 C           3.7658   60.6844   79.2072 C.ar    1  UNL1        0.0577
     12 C           2.5312   60.9745   78.5292 C.ar    1  UNL1        0.0431
     13 N           2.1492   62.3355   78.3714 N.pl3   1  UNL1       -0.3571
     14 H           2.9508   62.9662   78.4433 H       1  UNL1        0.1423
     15 H           1.6392   62.5177   77.5131 H       1  UNL1        0.1423
     16 C           0.1938   60.2218   77.7389 C.3     1  UNL1        0.0865
     17 S          -1.0291   60.4975   79.0712 S.3     1  UNL1       -0.1306
     18 C          -1.8135   58.8411   79.1920 C.3     1  UNL1        0.0841
     19 C          -4.3583   58.6250   76.2671 C.ar    1  UNL1        0.0344
     20 C          -4.0166   57.3879   75.7171 C.ar    1  UNL1        0.0028
     21 C          -3.0142   56.6227   76.3008 C.ar    1  UNL1       -0.0002
     22 C          -2.3228   57.1063   77.4189 C.ar    1  UNL1       -0.0034
     23 C          -2.6058   58.3735   77.9702 C.ar    1  UNL1       -0.0112
     24 C          -3.6511   59.1130   77.3823 C.ar    1  UNL1       -0.0006
     25 C          -6.4121   60.1341   76.6431 C.3     1  UNL1        0.0773
     26 C          -5.4804   59.4233   75.6988 C.2     1  UNL1        0.1735
     27 O          -5.6294   59.5031   74.4661 O.2     1  UNL1       -0.2913
@<TRIPOS>BOND
     1    25    26    1
     2    26    27    2
     3    26    19    1
     4    19    20   ar
     5    19    24   ar
     6    20    21   ar
     7    21    22   ar
     8    22    23   ar
     9    23    18    1
    10    23    24   ar
    11    18    17    1
    12    17    16    1
    13    16     1    1
    14     1     2   ar
    15     1    12   ar
    16     2     3    1
    17     2     4   ar
    18     4     5   ar
    19     5     6   ar
    20     5    11   ar
    21     6     7   ar
    22     7     8   ar
    23     8     9   ar
    24     9    10    1
    25     9    11   ar
    26    11    12   ar
    27    12    13    1
    28    13    14    1
    29    13    15    1



#	Name:			CHEMBL1115
#	Creating user name:	trannguyen
#	Creation time:		Thu Dec  1 16:45:11 2022


#	Modifying user name:	trannguyen
#	Modification time:	Thu Dec  1 16:45:11 2022

@<TRIPOS>MOLECULE
CHEMBL1115
 13 13 0 0 0
SMALL
GASTEIGER

@<TRIPOS>ATOM
      1 C          -0.5633   56.2590   76.6823 C.2     1  UNL1        0.1642
      2 C          -1.5947   56.5554   75.8000 C.2     1  UNL1        0.0361
      3 C          -2.3095   55.5139   75.2218 C.2     1  UNL1       -0.0016
      4 C          -1.9828   54.1994   75.5416 C.3     1  UNL1        0.1177
      5 N          -0.9876   53.9319   76.4181 N.pl3   1  UNL1       -0.2984
      6 C          -0.6396   52.5399   76.7483 C.3     1  UNL1        0.1126
      7 C          -0.2836   54.9332   76.9997 C.2     1  UNL1        0.0998
      8 O           0.1034   57.3661   77.2416 O.3     1  UNL1       -0.4088
      9 C           1.9588   60.2600   75.9606 C.3     1  UNL1        0.1184
     10 N           1.0081   59.4176   76.6640 N.am    1  UNL1       -0.2422
     11 C          -0.1925   60.0705   77.1631 C.3     1  UNL1        0.1184
     12 C           1.1235   58.0413   76.5615 C.2     1  UNL1        0.4096
     13 O           2.0148   57.4577   75.9580 O.2     1  UNL1       -0.2258
@<TRIPOS>BOND
     1     9    10    1
     2    10    11    1
     3    10    12   am
     4    12    13    2
     5    12     8    1
     6     8     1    1
     7     1     2    1
     8     1     7    2
     9     2     3    2
    10     3     4    1
    11     4     5    1
    12     5     6    1
    13     5     7    1



#	Name:			CHEMBL145973
#	Creating user name:	trannguyen
#	Creation time:		Thu Dec  1 16:45:11 2022


#	Modifying user name:	trannguyen
#	Modification time:	Thu Dec  1 16:45:11 2022

@<TRIPOS>MOLECULE
CHEMBL145973
 14 14 0 0 0
SMALL
GASTEIGER

@<TRIPOS>ATOM
      1 C          -0.3658   55.6943   76.8692 C.3     1  UNL1        0.2353
      2 O           0.6436   55.1201   76.0380 O.3     1  UNL1       -0.3594
      3 C          -0.9615   54.5327   77.7571 C.3     1  UNL1        0.1656
      4 N          -2.1172   53.7621   77.0733 N.4     1  UNL1        0.3117
      5 C          -3.4680   54.3173   77.4749 C.3     1  UNL1        0.1710
      6 C          -2.0592   52.2876   77.4708 C.3     1  UNL1        0.1710
      7 C          -1.9443   53.8450   75.5448 C.3     1  UNL1        0.1419
      8 C          -1.9053   55.3078   75.0721 C.3     1  UNL1        0.2054
      9 O          -1.3800   56.2454   76.0254 O.3     1  UNL1       -0.3235
     10 H           0.9931   55.8328   75.4773 H       1  UNL1        0.2130
     11 C           0.9752   56.2964   78.9880 C.3     1  UNL1        0.0051
     12 C           0.2588   56.8525   77.7364 C.3     1  UNL1        0.0528
     13 C          -0.8382   57.8193   78.2466 C.3     1  UNL1        0.0051
     14 C           1.2652   57.6813   76.9134 C.3     1  UNL1        0.0051
@<TRIPOS>UNITY_ATOM_ATTR
4 1
charge 1
@<TRIPOS>BOND
     1    11    12    1
     2    12    13    1
     3    12    14    1
     4     1    12    1
     5     1     2    1
     6     1     3    1
     7     1     9    1
     8     2    10    1
     9     3     4    1
    10     4     5    1
    11     4     6    1
    12     4     7    1
    13     7     8    1
    14     8     9    1



#	Name:			CHEMBL146674
#	Creating user name:	trannguyen
#	Creation time:		Thu Dec  1 16:45:11 2022


#	Modifying user name:	trannguyen
#	Modification time:	Thu Dec  1 16:45:11 2022

@<TRIPOS>MOLECULE
CHEMBL146674
 11 11 0 0 0
SMALL
GASTEIGER

@<TRIPOS>ATOM
      1 C          -1.8079   53.7750   76.1731 C.3     1  UNL1        0.0675
      2 C          -1.0948   54.9061   75.4379 C.3     1  UNL1        0.2357
      3 O          -1.0591   54.5492   74.0496 O.3     1  UNL1       -0.3593
      4 C          -1.8265   56.2834   75.5000 C.3     1  UNL1        0.1656
      5 N          -1.5864   57.1268   76.7726 N.4     1  UNL1        0.3117
      6 C          -2.4617   56.6372   77.9267 C.3     1  UNL1        0.1710
      7 C          -1.9738   58.5680   76.4803 C.3     1  UNL1        0.1710
      8 C          -0.1011   57.0596   77.1542 C.3     1  UNL1        0.1419
      9 C           0.4388   55.6239   77.1250 C.3     1  UNL1        0.2054
     10 O           0.2715   55.0203   75.8401 O.3     1  UNL1       -0.3235
     11 H          -0.7565   53.6287   74.0122 H       1  UNL1        0.2130
@<TRIPOS>UNITY_ATOM_ATTR
5 1
charge 1
@<TRIPOS>BOND
     1     2     1    1
     2     2     3    1
     3     2     4    1
     4     2    10    1
     5     3    11    1
     6     4     5    1
     7     5     6    1
     8     5     7    1
     9     5     8    1
    10     8     9    1
    11     9    10    1



#	Name:			CHEMBL147380
#	Creating user name:	trannguyen
#	Creation time:		Thu Dec  1 16:45:11 2022


#	Modifying user name:	trannguyen
#	Modification time:	Thu Dec  1 16:45:11 2022

@<TRIPOS>MOLECULE
CHEMBL147380
 12 11 0 0 0
SMALL
GASTEIGER

@<TRIPOS>ATOM
      1 O           1.7694   57.5181   76.1605 O.3     1  UNL1       -0.4420
      2 C           1.3733   58.7509   75.7447 C.2     1  UNL1        0.3172
      3 O           1.5271   59.0864   74.5772 O.2     1  UNL1       -0.2501
      4 C           0.7741   59.7112   76.7363 C.3     1  UNL1        0.1096
      5 C           2.8661   60.5150   77.9074 C.3     1  UNL1        0.0006
      6 C           1.7001   60.9065   77.0100 C.3     1  UNL1        0.0116
      7 C           1.1621   56.8933   77.2309 C.3     1  UNL1        0.2688
      8 C           0.2585   55.7392   76.7575 C.3     1  UNL1        0.1575
      9 N          -1.2095   56.0185   76.8621 N.4     1  UNL1        0.3135
     10 C          -1.9798   54.7739   77.1031 C.3     1  UNL1        0.1711
     11 C          -1.5003   56.9946   77.9412 C.3     1  UNL1        0.1711
     12 C          -1.6642   56.6029   75.5778 C.3     1  UNL1        0.1711
@<TRIPOS>UNITY_ATOM_ATTR
9 1
charge 1
@<TRIPOS>BOND
     1     5     6    1
     2     6     4    1
     3     4     2    1
     4     2     3    2
     5     2     1    1
     6     1     7    1
     7     7     8    1
     8     8     9    1
     9     9    10    1
    10     9    11    1
    11     9    12    1



#	Name:			CHEMBL147699
#	Creating user name:	trannguyen
#	Creation time:		Thu Dec  1 16:45:11 2022


#	Modifying user name:	trannguyen
#	Modification time:	Thu Dec  1 16:45:11 2022

@<TRIPOS>MOLECULE
CHEMBL147699
 8 7 0 0 0
SMALL
GASTEIGER

@<TRIPOS>ATOM
      1 C           5.3309   69.0741   62.6558 C.3     1  UNL1        0.1710
      2 N           4.0581   68.3125   62.6785 N.4     1  UNL1        0.3113
      3 C           3.2825   68.7337   63.8693 C.3     1  UNL1        0.1710
      4 C           3.2969   68.6430   61.4506 C.3     1  UNL1        0.1710
      5 C           4.3986   66.8574   62.7387 C.3     1  UNL1        0.1208
      6 C           3.7562   66.0704   63.8985 C.3     1  UNL1        0.1145
      7 S           4.4879   64.4070   64.0063 S.3     1  UNL1       -0.1620
      8 H           3.9364   63.9948   62.7781 H       1  UNL1        0.1025
@<TRIPOS>UNITY_ATOM_ATTR
2 1
charge 1
@<TRIPOS>BOND
     1     1     2    1
     2     2     3    1
     3     2     4    1
     4     2     5    1
     5     5     6    1
     6     6     7    1
     7     7     8    1



#	Name:			CHEMBL148530
#	Creating user name:	trannguyen
#	Creation time:		Thu Dec  1 16:45:11 2022


#	Modifying user name:	trannguyen
#	Modification time:	Thu Dec  1 16:45:11 2022

@<TRIPOS>MOLECULE
CHEMBL148530
 12 11 0 0 0
SMALL
GASTEIGER

@<TRIPOS>ATOM
      1 S           2.8179   69.1785   66.5288 S.3     1  UNL1       -0.0709
      2 C           3.7864   70.0646   67.6949 C.2     1  UNL1        0.1989
      3 O           3.3399   70.4489   68.8157 O.2     1  UNL1       -0.2845
      4 C           5.3002   70.2566   67.4585 C.3     1  UNL1        0.0759
      5 C           7.1076   70.8840   69.0974 C.3     1  UNL1        0.0005
      6 C           5.9360   71.3875   68.2488 C.3     1  UNL1        0.0087
      7 C           3.9503   69.1492   65.1053 C.3     1  UNL1        0.1258
      8 C           3.1725   68.7695   63.8324 C.3     1  UNL1        0.1215
      9 N           4.0005   68.3739   62.6544 N.4     1  UNL1        0.3113
     10 C           3.2906   68.6393   61.3782 C.3     1  UNL1        0.1710
     11 C           5.3055   69.0812   62.6465 C.3     1  UNL1        0.1710
     12 C           4.2631   66.9183   62.7449 C.3     1  UNL1        0.1710
@<TRIPOS>UNITY_ATOM_ATTR
9 1
charge 1
@<TRIPOS>BOND
     1     5     6    1
     2     6     4    1
     3     4     2    1
     4     2     3    2
     5     2     1    1
     6     1     7    1
     7     7     8    1
     8     8     9    1
     9     9    10    1
    10     9    11    1
    11     9    12    1



#	Name:			CHEMBL150001
#	Creating user name:	trannguyen
#	Creation time:		Thu Dec  1 16:45:11 2022


#	Modifying user name:	trannguyen
#	Modification time:	Thu Dec  1 16:45:11 2022

@<TRIPOS>MOLECULE
CHEMBL150001
 10 9 0 0 0
SMALL
GASTEIGER

@<TRIPOS>ATOM
      1 C           9.9569   80.5246   77.8967 C.3     1  UNL1        0.0688
      2 C           8.4968   80.9780   77.8678 C.3     1  UNL1        0.0706
      3 C           7.6756   79.5201   79.8683 C.3     1  UNL1        0.0722
      4 C           7.5558   79.9667   78.4422 C.2     1  UNL1        0.1513
      5 O           6.6726   79.4328   77.7451 O.2     1  UNL1       -0.2960
      6 C          10.8837   81.4513   78.7152 C.3     1  UNL1        0.1097
      7 N          11.8923   80.7385   79.5622 N.4     1  UNL1        0.3106
      8 C          12.8428   81.6905   80.1898 C.3     1  UNL1        0.1710
      9 C          11.2365   79.9310   80.6217 C.3     1  UNL1        0.1710
     10 C          12.6680   79.8175   78.6982 C.3     1  UNL1        0.1710
@<TRIPOS>UNITY_ATOM_ATTR
7 1
charge 1
@<TRIPOS>BOND
     1     3     4    1
     2     4     5    2
     3     4     2    1
     4     2     1    1
     5     1     6    1
     6     6     7    1
     7     7     8    1
     8     7     9    1
     9     7    10    1



#	Name:			CHEMBL157336
#	Creating user name:	trannguyen
#	Creation time:		Thu Dec  1 16:45:11 2022


#	Modifying user name:	trannguyen
#	Modification time:	Thu Dec  1 16:45:11 2022

@<TRIPOS>MOLECULE
CHEMBL157336
 38 41 0 0 0
SMALL
GASTEIGER

@<TRIPOS>ATOM
      1 C           3.6593   61.9068   67.9836 C.3     1  UNL1        0.0000
      2 C           3.3835   63.2170   67.2481 C.3     1  UNL1        0.0001
      3 C           4.1962   63.2983   65.9584 C.3     1  UNL1        0.0017
      4 C           3.3720   63.8837   64.8140 C.3     1  UNL1        0.0212
      5 C           4.2393   64.7584   63.9130 C.3     1  UNL1        0.0894
      6 C           3.9467   66.9868   62.9348 C.2     1  UNL1        0.2269
      7 O           4.2636   66.5661   61.8295 O.2     1  UNL1       -0.2747
      8 N           3.8753   66.1524   64.0289 N.am    1  UNL1       -0.3041
      9 H           3.7469   66.5512   64.9504 H       1  UNL1        0.1494
     10 C           3.6265   68.4377   63.2548 C.3     1  UNL1        0.1113
     11 C           4.8170   70.0802   67.1212 C.ar    1  UNL1        0.0479
     12 C           5.7046   70.0052   66.0468 C.ar    1  UNL1        0.0142
     13 C           5.2956   69.4678   64.8192 C.ar    1  UNL1       -0.0025
     14 C           3.9839   69.0033   64.6211 C.ar    1  UNL1       -0.0130
     15 C           3.1007   69.1022   65.7004 C.ar    1  UNL1       -0.0025
     16 C           3.5114   69.6308   66.9222 C.ar    1  UNL1        0.0142
     17 C           4.0727   70.9977   69.2656 C.3     1  UNL1        0.1122
     18 N           5.1464   70.5558   68.3892 N.pl3   1  UNL1       -0.3041
     19 C           6.3431   71.3996   68.3764 C.3     1  UNL1        0.1122
     20 C           2.3844   61.3546   68.6127 C.3     1  UNL1        0.0000
     21 C           2.6867   60.1457   69.4946 C.3     1  UNL1        0.0000
     22 C           2.2988   60.4317   70.9403 C.3     1  UNL1        0.0000
     23 C           2.1107   59.1428   71.7339 C.3     1  UNL1        0.0000
     24 C           3.2862   58.9448   72.6875 C.3     1  UNL1        0.0014
     25 C           3.3221   60.0330   73.7573 C.3     1  UNL1        0.0171
     26 C           2.3750   59.7576   74.9303 C.3     1  UNL1        0.0685
     27 N           2.5469   60.7258   76.0125 N.3     1  UNL1       -0.2996
     28 H           2.7557   61.6419   75.6178 H       1  UNL1        0.1232
     29 C           1.4106   60.8610   76.9380 C.3     1  UNL1        0.0419
     30 C           0.4037   61.9497   76.4830 C.3     1  UNL1        0.0144
     31 C          -0.8019   62.0047   77.4369 C.3     1  UNL1        0.0013
     32 C          -1.5155   60.6441   77.4261 C.3     1  UNL1        0.0001
     33 C          -0.5507   59.5429   77.8892 C.3     1  UNL1        0.0013
     34 C          -0.0813   59.8627   79.3168 C.3     1  UNL1        0.0001
     35 C           0.6530   61.2122   79.3373 C.3     1  UNL1        0.0013
     36 C          -0.2990   62.3192   78.8560 C.3     1  UNL1        0.0001
     37 C           1.8664   61.1462   78.3930 C.3     1  UNL1        0.0144
     38 C           0.6652   59.4982   76.9458 C.3     1  UNL1        0.0144
@<TRIPOS>BOND
     1    17    18    1
     2    18    19    1
     3    18    11    1
     4    11    12   ar
     5    11    16   ar
     6    12    13   ar
     7    13    14   ar
     8    14    10    1
     9    14    15   ar
    10    10     6    1
    11     6     7    2
    12     6     8   am
    13     8     5    1
    14     8     9    1
    15     5     4    1
    16     4     3    1
    17     3     2    1
    18     2     1    1
    19     1    20    1
    20    20    21    1
    21    21    22    1
    22    22    23    1
    23    23    24    1
    24    24    25    1
    25    25    26    1
    26    26    27    1
    27    27    29    1
    28    27    28    1
    29    29    30    1
    30    29    37    1
    31    29    38    1
    32    30    31    1
    33    31    32    1
    34    31    36    1
    35    32    33    1
    36    33    34    1
    37    33    38    1
    38    34    35    1
    39    35    36    1
    40    35    37    1
    41    15    16   ar



#	Name:			CHEMBL235565
#	Creating user name:	trannguyen
#	Creation time:		Thu Dec  1 16:45:11 2022


#	Modifying user name:	trannguyen
#	Modification time:	Thu Dec  1 16:45:11 2022

@<TRIPOS>MOLECULE
CHEMBL235565
 30 32 0 0 0
SMALL
GASTEIGER

@<TRIPOS>ATOM
      1 C           2.5013   69.3726   66.6549 C.3     1  UNL1        0.1760
      2 N           3.4202   69.0276   65.5627 N.am    1  UNL1       -0.2935
      3 C           3.0159   69.0087   64.2473 C.2     1  UNL1        0.2674
      4 O           1.8771   69.3089   63.8965 O.2     1  UNL1       -0.2711
      5 H           4.3481   68.6868   65.8013 H       1  UNL1        0.1500
      6 C           4.1100   68.6491   63.2306 C.3     1  UNL1        0.2893
      7 O           3.9625   67.3997   62.5659 O.3     1  UNL1       -0.4656
      8 C           3.8305   66.2977   63.3658 C.ar    1  UNL1        0.1393
      9 C           2.6497   65.8903   63.9889 C.ar    1  UNL1        0.0370
     10 C           2.6596   64.7915   64.8502 C.ar    1  UNL1        0.0064
     11 C           3.8488   64.0953   65.0781 C.ar    1  UNL1        0.0424
     12 C           5.0246   64.4733   64.4263 C.ar    1  UNL1        0.0064
     13 C           5.0076   65.5707   63.5650 C.ar    1  UNL1        0.0370
     14 C           3.8723   62.9618   66.0221 C.2     1  UNL1        0.2342
     15 O           3.5850   63.0940   67.2050 O.2     1  UNL1       -0.2831
     16 C           1.8918   68.0936   67.2379 C.2     1  UNL1        0.3355
     17 O           1.6368   67.0897   66.5891 O.2     1  UNL1       -0.2483
     18 C           1.6806   67.0364   69.3485 C.3     1  UNL1        0.2557
     19 O           1.7236   68.2391   68.5846 O.3     1  UNL1       -0.4433
     20 C           3.2283   70.1473   67.7673 C.3     1  UNL1        0.0590
     21 C           4.7094   70.2828   67.5569 C.ar    1  UNL1       -0.0016
     22 C           5.3456   70.3277   66.3307 C.ar    1  UNL1        0.0681
     23 N           6.6901   70.4492   66.5440 N.ar    1  UNL1       -0.3523
     24 H           7.3936   70.4908   65.8202 H       1  UNL1        0.1660
     25 C           6.9511   70.5480   67.8894 C.ar    1  UNL1        0.0563
     26 C           8.1692   70.7388   68.5536 C.ar    1  UNL1        0.0170
     27 C           8.1408   70.8346   69.9463 C.ar    1  UNL1        0.0015
     28 C           6.9439   70.7058   70.6459 C.ar    1  UNL1        0.0001
     29 C           5.7366   70.4881   69.9669 C.ar    1  UNL1        0.0012
     30 C           5.7306   70.4276   68.5566 C.ar    1  UNL1        0.0131
@<TRIPOS>BOND
     1    18    19    1
     2    19    16    1
     3    16    17    2
     4    16     1    1
     5     1    20    1
     6     1     2    1
     7    20    21    1
     8    21    22   ar
     9    21    30   ar
    10    22    23   ar
    11    23    24    1
    12    23    25   ar
    13    25    26   ar
    14    25    30   ar
    15    26    27   ar
    16    27    28   ar
    17    28    29   ar
    18    29    30   ar
    19     2     3   am
    20     2     5    1
    21     3     4    2
    22     3     6    1
    23     6     7    1
    24     7     8    1
    25     8     9   ar
    26     8    13   ar
    27     9    10   ar
    28    10    11   ar
    29    11    14    1
    30    11    12   ar
    31    14    15    2
    32    12    13   ar



#	Name:			CHEMBL2393089
#	Creating user name:	trannguyen
#	Creation time:		Thu Dec  1 16:45:11 2022


#	Modifying user name:	trannguyen
#	Modification time:	Thu Dec  1 16:45:11 2022

@<TRIPOS>MOLECULE
CHEMBL2393089
 49 53 0 0 0
SMALL
GASTEIGER

@<TRIPOS>ATOM
      1 C           2.7989   60.3694   69.3425 C.3     1  UNL1        0.0000
      2 C           2.6581   61.6320   68.4445 C.3     1  UNL1        0.0001
      3 C           3.9144   62.1011   67.6583 C.3     1  UNL1        0.0017
      4 C           3.6406   63.4290   66.8963 C.3     1  UNL1        0.0213
      5 C           3.6228   63.3934   65.3496 C.3     1  UNL1        0.0897
      6 C           3.1654   65.7589   64.6143 C.2     1  UNL1        0.2471
      7 O           2.0458   65.8373   65.1195 O.2     1  UNL1       -0.2701
      8 N           4.0160   64.6440   64.7330 N.am    1  UNL1       -0.3008
      9 H           5.0143   64.7995   64.6495 H       1  UNL1        0.1497
     10 C           3.8200   68.2444   64.2088 C.ar    1  UNL1        0.0527
     11 C           4.4662   69.1306   63.3068 C.ar    1  UNL1        0.0148
     12 C           4.8354   68.7622   62.0070 C.ar    1  UNL1        0.0013
     13 C           4.5802   67.4772   61.5682 C.ar    1  UNL1        0.0002
     14 C           4.0161   66.5601   62.4487 C.ar    1  UNL1        0.0058
     15 C           3.6943   66.8953   63.7841 C.ar    1  UNL1        0.0667
     16 N           3.4467   68.7486   65.5008 N.pl3   1  UNL1       -0.3127
     17 H           2.5145   69.1753   65.4926 H       1  UNL1        0.1522
     18 C           4.3605   71.0325   69.8911 C.3     1  UNL1        0.0307
     19 C           4.7436   70.6166   68.4980 C.ar    1  UNL1       -0.0246
     20 C           6.0145   70.9764   68.0331 C.ar    1  UNL1       -0.0045
     21 C           6.4192   70.6438   66.7480 C.ar    1  UNL1        0.0009
     22 C           5.5619   69.9323   65.9155 C.ar    1  UNL1        0.0143
     23 C           4.2952   69.5093   66.3620 C.ar    1  UNL1        0.0440
     24 C           3.8534   69.9163   67.6437 C.ar    1  UNL1       -0.0124
     25 C           2.4616   69.6073   68.1337 C.3     1  UNL1        0.0320
     26 C           2.1732   60.4824   70.7455 C.3     1  UNL1        0.0000
     27 C           2.3405   59.2467   71.6812 C.3     1  UNL1        0.0000
     28 C           2.9437   59.4969   73.0781 C.3     1  UNL1        0.0000
     29 C           2.0333   59.0856   74.2732 C.3     1  UNL1        0.0001
     30 C           2.0199   59.9858   75.5422 C.3     1  UNL1        0.0017
     31 C           1.4945   59.1910   76.7701 C.3     1  UNL1        0.0212
     32 C           1.4820   57.6447   76.6855 C.3     1  UNL1        0.0870
     33 N           0.3914   57.0293   77.4327 N.pl3   1  UNL1       -0.3328
     34 H           0.7202   56.3861   78.1505 H       1  UNL1        0.1468
     35 C          -0.8345   56.5741   76.8909 C.ar    1  UNL1        0.0431
     36 C          -0.9504   55.1635   76.7122 C.ar    1  UNL1        0.0045
     37 C          -2.1104   54.6423   76.1310 C.ar    1  UNL1        0.0561
     38 N          -3.1823   55.3902   75.8518 N.ar    1  UNL1       -0.2499
     39 C          -3.1232   56.7089   76.0451 C.ar    1  UNL1        0.0829
     40 C          -4.2893   57.3900   75.7389 C.ar    1  UNL1        0.0305
     41 C          -4.3562   58.7713   75.8027 C.ar    1  UNL1        0.0592
     42 CL         -5.8180   59.5847   75.4168 Cl      1  UNL1       -0.0822
     43 C          -3.2268   59.4899   76.1578 C.ar    1  UNL1        0.0115
     44 C          -2.0492   58.8089   76.4978 C.ar    1  UNL1        0.0036
     45 C          -1.9624   57.3882   76.5057 C.ar    1  UNL1        0.0305
     46 C          -2.2903   53.1803   75.8061 C.3     1  UNL1        0.0455
     47 C          -1.0471   52.3283   76.0131 C.3     1  UNL1        0.0066
     48 C          -0.3248   52.7646   77.2772 C.3     1  UNL1        0.0052
     49 C           0.1504   54.2138   77.1359 C.3     1  UNL1        0.0288
@<TRIPOS>BOND
     1    18    19    1
     2    19    20   ar
     3    19    24   ar
     4    20    21   ar
     5    21    22   ar
     6    22    23   ar
     7    23    16    1
     8    23    24   ar
     9    16    10    1
    10    16    17    1
    11    10    11   ar
    12    10    15   ar
    13    11    12   ar
    14    12    13   ar
    15    13    14   ar
    16    14    15   ar
    17    15     6    1
    18     6     7    2
    19     6     8   am
    20     8     5    1
    21     8     9    1
    22     5     4    1
    23     4     3    1
    24     3     2    1
    25     2     1    1
    26     1    26    1
    27    26    27    1
    28    27    28    1
    29    28    29    1
    30    29    30    1
    31    30    31    1
    32    31    32    1
    33    32    33    1
    34    33    35    1
    35    33    34    1
    36    35    36   ar
    37    35    45   ar
    38    36    37   ar
    39    36    49    1
    40    37    38   ar
    41    37    46    1
    42    38    39   ar
    43    39    40   ar
    44    39    45   ar
    45    40    41   ar
    46    41    42    1
    47    41    43   ar
    48    43    44   ar
    49    44    45   ar
    50    46    47    1
    51    47    48    1
    52    48    49    1
    53    24    25    1



#	Name:			CHEMBL2393108
#	Creating user name:	trannguyen
#	Creation time:		Thu Dec  1 16:45:11 2022


#	Modifying user name:	trannguyen
#	Modification time:	Thu Dec  1 16:45:11 2022

@<TRIPOS>MOLECULE
CHEMBL2393108
 43 47 0 0 0
SMALL
GASTEIGER

@<TRIPOS>ATOM
      1 C          -3.4465   58.3927   75.4093 C.3     1  UNL1        0.0213
      2 C          -3.7494   57.1023   76.1711 C.3     1  UNL1        0.0897
      3 C          -2.0246   55.9685   77.5418 C.2     1  UNL1        0.2471
      4 O          -2.4786   56.4172   78.6034 O.2     1  UNL1       -0.2701
      5 N          -2.5576   56.2790   76.3061 N.am    1  UNL1       -0.3008
      6 H          -2.3149   55.6820   75.5210 H       1  UNL1        0.1497
      7 C           0.3709   55.3802   78.1037 C.ar    1  UNL1        0.0527
      8 C           1.3644   54.3945   78.2295 C.ar    1  UNL1        0.0148
      9 C           1.1933   53.1173   77.7035 C.ar    1  UNL1        0.0013
     10 C           0.0014   52.7905   77.0719 C.ar    1  UNL1        0.0002
     11 C          -1.0383   53.7222   77.0125 C.ar    1  UNL1        0.0058
     12 C          -0.8794   55.0098   77.5645 C.ar    1  UNL1        0.0667
     13 N           0.6077   56.6822   78.6209 N.pl3   1  UNL1       -0.3127
     14 H          -0.1807   56.9833   79.2111 H       1  UNL1        0.1522
     15 C           3.0291   61.0356   78.7018 C.3     1  UNL1        0.0307
     16 C           2.3278   59.9304   77.9617 C.ar    1  UNL1       -0.0246
     17 C           2.0590   60.0935   76.5940 C.ar    1  UNL1       -0.0045
     18 C           1.3213   59.1430   75.9004 C.ar    1  UNL1        0.0009
     19 C           0.8256   58.0332   76.5757 C.ar    1  UNL1        0.0143
     20 C           1.1325   57.8044   77.9278 C.ar    1  UNL1        0.0440
     21 C           1.9046   58.7552   78.6272 C.ar    1  UNL1       -0.0124
     22 C           2.2905   58.5210   80.0678 C.3     1  UNL1        0.0320
     23 C          -4.6551   59.3294   75.2574 C.3     1  UNL1        0.0018
     24 C          -5.8189   58.9934   76.1992 C.3     1  UNL1        0.0018
     25 C          -6.6271   60.2384   76.6062 C.3     1  UNL1        0.0212
     26 C          -7.1364   60.1300   78.0535 C.3     1  UNL1        0.0870
     27 N          -6.1243   60.6176   78.9950 N.pl3   1  UNL1       -0.3328
     28 H          -5.6406   59.8317   79.4185 H       1  UNL1        0.1468
     29 C          -5.2281   61.6823   78.7008 C.ar    1  UNL1        0.0431
     30 C          -3.8292   61.3801   78.6521 C.ar    1  UNL1        0.0045
     31 C          -2.9197   62.4392   78.5439 C.ar    1  UNL1        0.0561
     32 N          -3.3002   63.7150   78.3396 N.ar    1  UNL1       -0.2499
     33 C          -4.5943   64.0233   78.3857 C.ar    1  UNL1        0.0829
     34 C          -4.8807   65.3771   78.2657 C.ar    1  UNL1        0.0305
     35 C          -6.1658   65.8689   78.4410 C.ar    1  UNL1        0.0592
     36 CL         -6.4702   67.5591   78.3843 Cl      1  UNL1       -0.0822
     37 C          -7.1945   64.9964   78.7174 C.ar    1  UNL1        0.0115
     38 C          -6.9189   63.6300   78.8056 C.ar    1  UNL1        0.0036
     39 C          -5.6198   63.0744   78.6189 C.ar    1  UNL1        0.0305
     40 C          -1.4273   62.2592   78.6852 C.3     1  UNL1        0.0455
     41 C          -1.0200   60.8973   79.2298 C.3     1  UNL1        0.0066
     42 C          -1.7880   59.8209   78.4854 C.3     1  UNL1        0.0052
     43 C          -3.2904   59.9634   78.7627 C.3     1  UNL1        0.0288
@<TRIPOS>BOND
     1    15    16    1
     2    16    17   ar
     3    16    21   ar
     4    17    18   ar
     5    18    19   ar
     6    19    20   ar
     7    20    13    1
     8    20    21   ar
     9    13     7    1
    10    13    14    1
    11     7     8   ar
    12     7    12   ar
    13     8     9   ar
    14     9    10   ar
    15    10    11   ar
    16    11    12   ar
    17    12     3    1
    18     3     4    2
    19     3     5   am
    20     5     2    1
    21     5     6    1
    22     2     1    1
    23     1    23    1
    24    23    24    1
    25    24    25    1
    26    25    26    1
    27    26    27    1
    28    27    29    1
    29    27    28    1
    30    29    30   ar
    31    29    39   ar
    32    30    31   ar
    33    30    43    1
    34    31    32   ar
    35    31    40    1
    36    32    33   ar
    37    33    34   ar
    38    33    39   ar
    39    34    35   ar
    40    35    36    1
    41    35    37   ar
    42    37    38   ar
    43    38    39   ar
    44    40    41    1
    45    41    42    1
    46    42    43    1
    47    21    22    1



#	Name:			CHEMBL2393109
#	Creating user name:	trannguyen
#	Creation time:		Thu Dec  1 16:45:11 2022


#	Modifying user name:	trannguyen
#	Modification time:	Thu Dec  1 16:45:11 2022

@<TRIPOS>MOLECULE
CHEMBL2393109
 49 53 0 0 0
SMALL
GASTEIGER

@<TRIPOS>ATOM
      1 C           0.2379   65.1897   71.3483 C.2     1  UNL1        0.2242
      2 O          -0.3901   64.6800   70.4209 O.2     1  UNL1       -0.2750
      3 N           0.1212   64.6390   72.5901 N.am    1  UNL1       -0.3043
      4 H          -0.4988   63.8361   72.6056 H       1  UNL1        0.1494
      5 C           1.1439   66.3925   71.1541 C.3     1  UNL1        0.1062
      6 C           1.0875   66.8721   69.7015 C.3     1  UNL1        0.0993
      7 C           2.0469   68.6966   68.2121 C.2     1  UNL1        0.2471
      8 O           1.2358   68.6304   67.3137 O.2     1  UNL1       -0.2701
      9 N           1.9309   68.0382   69.4355 N.am    1  UNL1       -0.3003
     10 H           2.6083   68.2022   70.1557 H       1  UNL1        0.1498
     11 C           3.8431   69.6621   66.7016 C.ar    1  UNL1        0.0527
     12 C           5.0702   70.3449   66.5724 C.ar    1  UNL1        0.0148
     13 C           5.7267   70.8985   67.6736 C.ar    1  UNL1        0.0013
     14 C           5.1717   70.7845   68.9375 C.ar    1  UNL1        0.0002
     15 C           3.9723   70.0976   69.1032 C.ar    1  UNL1        0.0058
     16 C           3.2946   69.5216   68.0042 C.ar    1  UNL1        0.0667
     17 N           3.1998   69.1675   65.5380 N.pl3   1  UNL1       -0.3127
     18 H           2.1848   69.0629   65.6285 H       1  UNL1        0.1522
     19 C           4.4195   64.7815   63.4431 C.3     1  UNL1        0.0307
     20 C           4.3324   66.2845   63.3833 C.ar    1  UNL1       -0.0246
     21 C           5.0804   66.9597   62.4161 C.ar    1  UNL1       -0.0045
     22 C           5.1185   68.3487   62.4129 C.ar    1  UNL1        0.0009
     23 C           4.4908   69.0727   63.4351 C.ar    1  UNL1        0.0143
     24 C           3.7402   68.4331   64.4356 C.ar    1  UNL1        0.0440
     25 C           3.5713   67.0299   64.3263 C.ar    1  UNL1       -0.0124
     26 C           2.5004   66.3062   65.1011 C.3     1  UNL1        0.0320
     27 C           0.7739   65.0073   73.8327 C.3     1  UNL1        0.0894
     28 C           0.6009   63.9364   74.9101 C.3     1  UNL1        0.0212
     29 C          -0.6424   64.2036   75.7623 C.3     1  UNL1        0.0018
     30 C          -1.0183   62.9900   76.6212 C.3     1  UNL1        0.0018
     31 C          -1.1057   63.3745   78.0999 C.3     1  UNL1        0.0212
     32 C          -0.0237   62.7445   78.9889 C.3     1  UNL1        0.0870
     33 N           1.0898   62.2422   78.1882 N.pl3   1  UNL1       -0.3328
     34 H           1.0121   62.4278   77.1913 H       1  UNL1        0.1468
     35 C           1.6660   60.9748   78.4276 C.ar    1  UNL1        0.0431
     36 C           2.8920   60.9604   79.1413 C.ar    1  UNL1        0.0045
     37 C           3.5426   59.7387   79.3314 C.ar    1  UNL1        0.0561
     38 N           3.0225   58.5615   78.9321 N.ar    1  UNL1       -0.2499
     39 C           1.8992   58.5631   78.2164 C.ar    1  UNL1        0.0829
     40 C           1.4593   57.3223   77.7843 C.ar    1  UNL1        0.0305
     41 C           0.3532   57.1967   76.9562 C.ar    1  UNL1        0.0592
     42 CL         -0.1671   55.6404   76.4430 Cl      1  UNL1       -0.0822
     43 C          -0.3082   58.3287   76.5154 C.ar    1  UNL1        0.0115
     44 C           0.1255   59.5851   76.9472 C.ar    1  UNL1        0.0036
     45 C           1.1995   59.7424   77.8632 C.ar    1  UNL1        0.0305
     46 C           4.8824   59.6347   80.0115 C.3     1  UNL1        0.0455
     47 C           5.6436   60.9530   80.0159 C.3     1  UNL1        0.0066
     48 C           4.7371   62.0503   80.5518 C.3     1  UNL1        0.0052
     49 C           3.5185   62.2444   79.6438 C.3     1  UNL1        0.0288
@<TRIPOS>BOND
     1    19    20    1
     2    20    21   ar
     3    20    25   ar
     4    21    22   ar
     5    22    23   ar
     6    23    24   ar
     7    24    17    1
     8    24    25   ar
     9    17    11    1
    10    17    18    1
    11    11    12   ar
    12    11    16   ar
    13    12    13   ar
    14    13    14   ar
    15    14    15   ar
    16    15    16   ar
    17    16     7    1
    18     7     8    2
    19     7     9   am
    20     9     6    1
    21     9    10    1
    22     6     5    1
    23     5     1    1
    24     1     2    2
    25     1     3   am
    26     3    27    1
    27     3     4    1
    28    27    28    1
    29    28    29    1
    30    29    30    1
    31    30    31    1
    32    31    32    1
    33    32    33    1
    34    33    35    1
    35    33    34    1
    36    35    36   ar
    37    35    45   ar
    38    36    37   ar
    39    36    49    1
    40    37    38   ar
    41    37    46    1
    42    38    39   ar
    43    39    40   ar
    44    39    45   ar
    45    40    41   ar
    46    41    42    1
    47    41    43   ar
    48    43    44   ar
    49    44    45   ar
    50    46    47    1
    51    47    48    1
    52    48    49    1
    53    25    26    1



#	Name:			CHEMBL2393110
#	Creating user name:	trannguyen
#	Creation time:		Thu Dec  1 16:45:11 2022


#	Modifying user name:	trannguyen
#	Modification time:	Thu Dec  1 16:45:11 2022

@<TRIPOS>MOLECULE
CHEMBL2393110
 50 54 0 0 0
SMALL
GASTEIGER

@<TRIPOS>ATOM
      1 C           2.6423   60.3931   69.6368 C.2     1  UNL1        0.2225
      2 O           2.9349   59.3493   69.0254 O.2     1  UNL1       -0.2751
      3 N           2.7542   61.6307   69.0658 N.am    1  UNL1       -0.3043
      4 H           2.4623   62.4470   69.5947 H       1  UNL1        0.1494
      5 C           2.1631   60.4115   71.0704 C.3     1  UNL1        0.0868
      6 C           2.2114   59.0449   71.7593 C.3     1  UNL1        0.0308
      7 C           3.2421   58.9614   72.8851 C.3     1  UNL1        0.0902
      8 C           2.5290   60.0658   75.0385 C.2     1  UNL1        0.2471
      9 O           2.8992   61.1893   74.6868 O.2     1  UNL1       -0.2701
     10 N           2.5784   58.9317   74.2110 N.am    1  UNL1       -0.3008
     11 H           2.2777   58.0305   74.5200 H       1  UNL1        0.1497
     12 C           0.7997   59.1143   76.6806 C.ar    1  UNL1        0.0527
     13 C           0.3516   59.0454   78.0043 C.ar    1  UNL1        0.0148
     14 C           1.0427   59.6435   79.0625 C.ar    1  UNL1        0.0013
     15 C           2.2216   60.3257   78.8165 C.ar    1  UNL1        0.0002
     16 C           2.6922   60.4420   77.5085 C.ar    1  UNL1        0.0058
     17 C           2.0022   59.8420   76.4165 C.ar    1  UNL1        0.0667
     18 N           0.0981   58.3700   75.6845 N.pl3   1  UNL1       -0.3127
     19 H           0.2839   58.6871   74.7265 H       1  UNL1        0.1522
     20 C          -2.3681   54.0409   75.6648 C.3     1  UNL1        0.0307
     21 C          -2.3713   55.5444   75.7560 C.ar    1  UNL1       -0.0246
     22 C          -3.5800   56.2330   75.6370 C.ar    1  UNL1       -0.0045
     23 C          -3.5854   57.6231   75.6078 C.ar    1  UNL1        0.0009
     24 C          -2.3775   58.3329   75.6107 C.ar    1  UNL1        0.0143
     25 C          -1.1463   57.6775   75.7620 C.ar    1  UNL1        0.0440
     26 C          -1.1748   56.2772   75.9664 C.ar    1  UNL1       -0.0124
     27 C           0.0144   55.5524   76.5434 C.3     1  UNL1        0.0320
     28 C           3.1537   61.8083   67.6825 C.3     1  UNL1        0.0894
     29 C           3.6717   63.2218   67.3952 C.3     1  UNL1        0.0212
     30 C           3.4761   63.5894   65.9244 C.3     1  UNL1        0.0018
     31 C           3.6701   65.0809   65.6359 C.3     1  UNL1        0.0018
     32 C           2.3374   65.7977   65.3475 C.3     1  UNL1        0.0212
     33 C           1.9784   66.8167   66.4316 C.3     1  UNL1        0.0870
     34 N           2.0548   68.1812   65.9258 N.pl3   1  UNL1       -0.3328
     35 H           1.2489   68.4201   65.3485 H       1  UNL1        0.1468
     36 C           3.2312   68.7111   65.3388 C.ar    1  UNL1        0.0431
     37 C           3.5423   68.6784   63.9549 C.ar    1  UNL1        0.0045
     38 C           4.7521   69.2644   63.5466 C.ar    1  UNL1        0.0561
     39 N           5.6261   69.8523   64.3889 N.ar    1  UNL1       -0.2499
     40 C           5.3247   69.9237   65.6813 C.ar    1  UNL1        0.0829
     41 C           6.2486   70.5591   66.4928 C.ar    1  UNL1        0.0305
     42 C           6.0048   70.7484   67.8464 C.ar    1  UNL1        0.0592
     43 CL          7.1733   71.5554   68.8167 Cl      1  UNL1       -0.0822
     44 C           4.8227   70.2933   68.4097 C.ar    1  UNL1        0.0115
     45 C           3.8977   69.6175   67.6074 C.ar    1  UNL1        0.0036
     46 C           4.1270   69.4117   66.2193 C.ar    1  UNL1        0.0305
     47 C           5.1395   69.3986   62.0971 C.3     1  UNL1        0.0455
     48 C           4.4816   68.3649   61.2023 C.3     1  UNL1        0.0066
     49 C           2.9853   68.3765   61.4503 C.3     1  UNL1        0.0052
     50 C           2.6750   68.0221   62.9040 C.3     1  UNL1        0.0288
@<TRIPOS>BOND
     1    20    21    1
     2    21    22   ar
     3    21    26   ar
     4    22    23   ar
     5    23    24   ar
     6    24    25   ar
     7    25    18    1
     8    25    26   ar
     9    18    12    1
    10    18    19    1
    11    12    13   ar
    12    12    17   ar
    13    13    14   ar
    14    14    15   ar
    15    15    16   ar
    16    16    17   ar
    17    17     8    1
    18     8     9    2
    19     8    10   am
    20    10     7    1
    21    10    11    1
    22     7     6    1
    23     6     5    1
    24     5     1    1
    25     1     2    2
    26     1     3   am
    27     3    28    1
    28     3     4    1
    29    28    29    1
    30    29    30    1
    31    30    31    1
    32    31    32    1
    33    32    33    1
    34    33    34    1
    35    34    36    1
    36    34    35    1
    37    36    37   ar
    38    36    46   ar
    39    37    38   ar
    40    37    50    1
    41    38    39   ar
    42    38    47    1
    43    39    40   ar
    44    40    41   ar
    45    40    46   ar
    46    41    42   ar
    47    42    43    1
    48    42    44   ar
    49    44    45   ar
    50    45    46   ar
    51    47    48    1
    52    48    49    1
    53    49    50    1
    54    26    27    1



#	Name:			CHEMBL2393226
#	Creating user name:	trannguyen
#	Creation time:		Thu Dec  1 16:45:11 2022


#	Modifying user name:	trannguyen
#	Modification time:	Thu Dec  1 16:45:11 2022

@<TRIPOS>MOLECULE
CHEMBL2393226
 53 57 0 0 0
SMALL
GASTEIGER

@<TRIPOS>ATOM
      1 C           2.9207   59.4065   69.6760 C.2     1  UNL1        0.2225
      2 O           3.4009   58.6127   68.8670 O.2     1  UNL1       -0.2751
      3 N           2.6557   58.9892   70.9471 N.am    1  UNL1       -0.3043
      4 H           2.9134   58.0205   71.1032 H       1  UNL1        0.1494
      5 C           2.6314   60.8333   69.2700 C.3     1  UNL1        0.0850
      6 C           3.6988   61.4638   68.3925 C.3     1  UNL1        0.0096
      7 C           3.0408   62.5470   67.5324 C.3     1  UNL1        0.0023
      8 C           4.0366   63.3117   66.6609 C.3     1  UNL1        0.0213
      9 C           3.5551   63.4115   65.2114 C.3     1  UNL1        0.0897
     10 C           3.2365   65.8424   64.6925 C.2     1  UNL1        0.2471
     11 O           2.1951   65.9415   65.3542 O.2     1  UNL1       -0.2701
     12 N           3.9278   64.6572   64.5687 N.am    1  UNL1       -0.3008
     13 H           4.7708   64.6022   64.0155 H       1  UNL1        0.1497
     14 C           3.7229   68.3543   64.4316 C.ar    1  UNL1        0.0527
     15 C           4.2394   69.3522   63.5764 C.ar    1  UNL1        0.0148
     16 C           4.8610   69.0537   62.3567 C.ar    1  UNL1        0.0013
     17 C           4.9915   67.7389   61.9526 C.ar    1  UNL1        0.0002
     18 C           4.4594   66.7337   62.7475 C.ar    1  UNL1        0.0058
     19 C           3.8196   67.0147   63.9768 C.ar    1  UNL1        0.0667
     20 N           3.1340   68.7380   65.6660 N.pl3   1  UNL1       -0.3127
     21 H           2.1330   68.5647   65.7413 H       1  UNL1        0.1522
     22 C           7.0267   70.8058   68.1567 C.3     1  UNL1        0.0307
     23 C           5.5552   70.5341   67.9721 C.ar    1  UNL1       -0.0246
     24 C           4.6837   70.9170   68.9973 C.ar    1  UNL1       -0.0045
     25 C           3.3488   70.5405   68.9475 C.ar    1  UNL1        0.0009
     26 C           2.8745   69.7705   67.8795 C.ar    1  UNL1        0.0143
     27 C           3.6888   69.4351   66.7828 C.ar    1  UNL1        0.0440
     28 C           5.0424   69.8691   66.8167 C.ar    1  UNL1       -0.0124
     29 C           5.9645   69.6868   65.6376 C.3     1  UNL1        0.0320
     30 C           2.1199   59.7369   72.0716 C.3     1  UNL1        0.0894
     31 C           2.5636   59.1983   73.4370 C.3     1  UNL1        0.0212
     32 C           3.1921   60.2596   74.3400 C.3     1  UNL1        0.0017
     33 C           2.5060   60.4542   75.6845 C.3     1  UNL1        0.0001
     34 C           1.3606   59.4829   75.9398 C.3     1  UNL1        0.0017
     35 C           1.5290   58.7512   77.2736 C.3     1  UNL1        0.0212
     36 C           1.3731   57.2480   77.0887 C.3     1  UNL1        0.0870
     37 N           0.1211   56.8101   77.6860 N.pl3   1  UNL1       -0.3328
     38 H          -0.1789   57.4506   78.4104 H       1  UNL1        0.1468
     39 C          -0.9516   56.2527   76.9595 C.ar    1  UNL1        0.0431
     40 C          -1.0966   54.8622   76.7133 C.ar    1  UNL1        0.0045
     41 C          -2.2438   54.4345   76.0302 C.ar    1  UNL1        0.0561
     42 N          -3.2588   55.2518   75.6850 N.ar    1  UNL1       -0.2499
     43 C          -3.1573   56.5514   75.9426 C.ar    1  UNL1        0.0829
     44 C          -4.2381   57.3307   75.5612 C.ar    1  UNL1        0.0305
     45 C          -4.2264   58.7087   75.7228 C.ar    1  UNL1        0.0592
     46 CL         -5.5780   59.6459   75.2210 Cl      1  UNL1       -0.0822
     47 C          -3.1204   59.3289   76.2759 C.ar    1  UNL1        0.0115
     48 C          -2.0371   58.5505   76.6927 C.ar    1  UNL1        0.0036
     49 C          -2.0239   57.1326   76.5515 C.ar    1  UNL1        0.0305
     50 C          -2.4684   52.9958   75.6436 C.3     1  UNL1        0.0455
     51 C          -1.1843   52.1842   75.6079 C.3     1  UNL1        0.0066
     52 C          -0.4691   52.3608   76.9310 C.3     1  UNL1        0.0052
     53 C          -0.0754   53.8240   77.1236 C.3     1  UNL1        0.0288
@<TRIPOS>BOND
     1    22    23    1
     2    23    24   ar
     3    23    28   ar
     4    24    25   ar
     5    25    26   ar
     6    26    27   ar
     7    27    20    1
     8    27    28   ar
     9    20    14    1
    10    20    21    1
    11    14    15   ar
    12    14    19   ar
    13    15    16   ar
    14    16    17   ar
    15    17    18   ar
    16    18    19   ar
    17    19    10    1
    18    10    11    2
    19    10    12   am
    20    12     9    1
    21    12    13    1
    22     9     8    1
    23     8     7    1
    24     7     6    1
    25     6     5    1
    26     5     1    1
    27     1     2    2
    28     1     3   am
    29     3    30    1
    30     3     4    1
    31    30    31    1
    32    31    32    1
    33    32    33    1
    34    33    34    1
    35    34    35    1
    36    35    36    1
    37    36    37    1
    38    37    39    1
    39    37    38    1
    40    39    40   ar
    41    39    49   ar
    42    40    41   ar
    43    40    53    1
    44    41    42   ar
    45    41    50    1
    46    42    43   ar
    47    43    44   ar
    48    43    49   ar
    49    44    45   ar
    50    45    46    1
    51    45    47   ar
    52    47    48   ar
    53    48    49   ar
    54    50    51    1
    55    51    52    1
    56    52    53    1
    57    28    29    1



#	Name:			CHEMBL2393227
#	Creating user name:	trannguyen
#	Creation time:		Thu Dec  1 16:45:11 2022


#	Modifying user name:	trannguyen
#	Modification time:	Thu Dec  1 16:45:11 2022

@<TRIPOS>MOLECULE
CHEMBL2393227
 45 49 0 0 0
SMALL
GASTEIGER

@<TRIPOS>ATOM
      1 C          -0.8563   61.9629   76.7163 C.3     1  UNL1        0.0017
      2 C          -1.2829   62.8735   77.8764 C.3     1  UNL1        0.0213
      3 C          -2.6210   62.4397   78.5154 C.3     1  UNL1        0.0897
      4 C          -3.6582   60.2946   79.3274 C.2     1  UNL1        0.2471
      5 O          -4.6650   60.8594   79.7977 O.2     1  UNL1       -0.2701
      6 N          -2.6547   61.0027   78.6277 N.am    1  UNL1       -0.3008
      7 H          -2.0981   60.4777   78.0209 H       1  UNL1        0.1497
      8 C          -4.5351   57.8931   79.5591 C.ar    1  UNL1        0.0527
      9 C          -4.1998   56.5120   79.6882 C.ar    1  UNL1        0.0148
     10 C          -2.8866   56.0634   79.6092 C.ar    1  UNL1        0.0013
     11 C          -1.8548   56.9723   79.4432 C.ar    1  UNL1        0.0002
     12 C          -2.1461   58.3320   79.3805 C.ar    1  UNL1        0.0058
     13 C          -3.4522   58.8027   79.4336 C.ar    1  UNL1        0.0667
     14 N          -5.8824   58.2748   79.6145 N.pl3   1  UNL1       -0.3127
     15 H          -6.1373   58.7693   80.4760 H       1  UNL1        0.1522
     16 C         -10.2668   59.7423   77.8827 C.3     1  UNL1        0.0307
     17 C          -9.0844   58.8199   77.7693 C.ar    1  UNL1       -0.0246
     18 C          -9.1660   57.6465   77.0126 C.ar    1  UNL1       -0.0045
     19 C          -8.1253   56.7225   77.0485 C.ar    1  UNL1        0.0009
     20 C          -7.0457   56.9218   77.9144 C.ar    1  UNL1        0.0143
     21 C          -6.9453   58.0822   78.7029 C.ar    1  UNL1        0.0440
     22 C          -7.9168   59.0872   78.5255 C.ar    1  UNL1       -0.0124
     23 C          -7.7132   60.4838   79.0560 C.3     1  UNL1        0.0320
     24 C           0.5801   61.4495   76.8251 C.3     1  UNL1        0.0001
     25 C           0.9522   61.0993   78.2653 C.3     1  UNL1        0.0001
     26 C           1.0845   59.6008   78.5313 C.3     1  UNL1        0.0017
     27 C           1.5557   58.8154   77.3055 C.3     1  UNL1        0.0212
     28 C           1.3758   57.2996   77.4545 C.3     1  UNL1        0.0870
     29 N           0.7166   56.7209   76.2932 N.pl3   1  UNL1       -0.3328
     30 H           1.3812   56.2579   75.6770 H       1  UNL1        0.1468
     31 C          -0.5309   56.0646   76.2574 C.ar    1  UNL1        0.0431
     32 C          -0.7762   54.7143   76.6240 C.ar    1  UNL1        0.0045
     33 C          -2.0913   54.2259   76.4843 C.ar    1  UNL1        0.0561
     34 N          -3.1424   54.9859   76.1147 N.ar    1  UNL1       -0.2499
     35 C          -2.9496   56.2842   75.9152 C.ar    1  UNL1        0.0829
     36 C          -4.0943   57.0465   75.7589 C.ar    1  UNL1        0.0305
     37 C          -4.0248   58.4303   75.6973 C.ar    1  UNL1        0.0592
     38 CL         -5.4664   59.3634   75.8805 Cl      1  UNL1       -0.0822
     39 C          -2.7954   59.0608   75.6067 C.ar    1  UNL1        0.0115
     40 C          -1.6319   58.2966   75.7277 C.ar    1  UNL1        0.0036
     41 C          -1.6767   56.8908   75.9482 C.ar    1  UNL1        0.0305
     42 C          -2.4828   52.8087   76.8238 C.3     1  UNL1        0.0455
     43 C          -1.3103   51.8462   76.8171 C.3     1  UNL1        0.0066
     44 C          -0.2162   52.4301   77.6885 C.3     1  UNL1        0.0052
     45 C           0.2906   53.7444   77.0871 C.3     1  UNL1        0.0288
@<TRIPOS>BOND
     1    16    17    1
     2    17    18   ar
     3    17    22   ar
     4    18    19   ar
     5    19    20   ar
     6    20    21   ar
     7    21    14    1
     8    21    22   ar
     9    14     8    1
    10    14    15    1
    11     8     9   ar
    12     8    13   ar
    13     9    10   ar
    14    10    11   ar
    15    11    12   ar
    16    12    13   ar
    17    13     4    1
    18     4     5    2
    19     4     6   am
    20     6     3    1
    21     6     7    1
    22     3     2    1
    23     2     1    1
    24     1    24    1
    25    24    25    1
    26    25    26    1
    27    26    27    1
    28    27    28    1
    29    28    29    1
    30    29    31    1
    31    29    30    1
    32    31    32   ar
    33    31    41   ar
    34    32    33   ar
    35    32    45    1
    36    33    34   ar
    37    33    42    1
    38    34    35   ar
    39    35    36   ar
    40    35    41   ar
    41    36    37   ar
    42    37    38    1
    43    37    39   ar
    44    39    40   ar
    45    40    41   ar
    46    42    43    1
    47    43    44    1
    48    44    45    1
    49    22    23    1



#	Name:			CHEMBL3215535
#	Creating user name:	trannguyen
#	Creation time:		Thu Dec  1 16:45:11 2022


#	Modifying user name:	trannguyen
#	Modification time:	Thu Dec  1 16:45:11 2022

@<TRIPOS>MOLECULE
CHEMBL3215535
 29 32 0 0 0
SMALL
GASTEIGER

@<TRIPOS>ATOM
      1 C          -1.0235   54.9537   76.2018 C.3     1  UNL1        0.0882
      2 N           0.4021   55.1758   76.1344 N.pl3   1  UNL1       -0.3167
      3 H           0.9675   54.7095   75.4071 H       1  UNL1        0.1482
      4 C           0.9563   56.2437   76.9097 C.ar    1  UNL1        0.1503
      5 C           0.9449   56.2040   78.3180 C.ar    1  UNL1        0.0375
      6 C           1.3789   57.2768   79.0402 C.ar    1  UNL1        0.0238
      7 C           1.7851   58.4424   78.3577 C.ar    1  UNL1        0.1030
      8 N           1.8147   58.4264   76.9940 N.ar    1  UNL1       -0.1468
      9 N           1.4370   57.3492   76.2897 N.ar    1  UNL1       -0.1331
     10 C           2.0628   59.7019   79.0993 C.ar    1  UNL1        0.0194
     11 C           1.2301   60.1511   80.1496 C.ar    1  UNL1        0.0016
     12 C           1.4669   61.3836   80.7593 C.ar    1  UNL1        0.0000
     13 C           2.5228   62.1864   80.3285 C.ar    1  UNL1        0.0000
     14 C           3.3593   61.7488   79.3001 C.ar    1  UNL1        0.0000
     15 C           3.1390   60.5104   78.6940 C.ar    1  UNL1        0.0016
     16 C          -1.9178   55.9468   75.4533 C.3     1  UNL1        0.0213
     17 N          -2.8632   59.0268   77.2456 N.3     1  UNL1       -0.2690
     18 C          -2.0909   57.9714   77.9417 C.3     1  UNL1        0.0724
     19 C          -2.8125   56.6018   77.8052 C.3     1  UNL1        0.0174
     20 C          -3.1766   56.2950   76.3296 C.3     1  UNL1        0.0045
     21 C          -4.0066   57.4942   75.7928 C.3     1  UNL1        0.0174
     22 C          -3.1681   58.7619   75.8430 C.3     1  UNL1        0.0724
     23 C          -3.4547   60.2261   77.8770 C.3     1  UNL1        0.0991
     24 C          -0.6288   63.4010   78.7762 C.ar    1  UNL1       -0.0000
     25 C          -0.4238   62.5466   77.6941 C.ar    1  UNL1       -0.0003
     26 C          -1.3630   61.5554   77.3942 C.ar    1  UNL1       -0.0029
     27 C          -2.5201   61.3929   78.1862 C.ar    1  UNL1       -0.0061
     28 C          -2.7050   62.2590   79.2851 C.ar    1  UNL1       -0.0029
     29 C          -1.7698   63.2616   79.5659 C.ar    1  UNL1       -0.0003
@<TRIPOS>BOND
     1    24    25   ar
     2    24    29   ar
     3    25    26   ar
     4    26    27   ar
     5    27    23    1
     6    27    28   ar
     7    23    17    1
     8    17    18    1
     9    17    22    1
    10    18    19    1
    11    19    20    1
    12    20    16    1
    13    20    21    1
    14    16     1    1
    15     1     2    1
    16     2     4    1
    17     2     3    1
    18     4     5   ar
    19     4     9   ar
    20     5     6   ar
    21     6     7   ar
    22     7    10    1
    23     7     8   ar
    24    10    11   ar
    25    10    15   ar
    26    11    12   ar
    27    12    13   ar
    28    13    14   ar
    29    14    15   ar
    30     8     9   ar
    31    21    22    1
    32    28    29   ar



#	Name:			CHEMBL321926
#	Creating user name:	trannguyen
#	Creation time:		Thu Dec  1 16:45:11 2022


#	Modifying user name:	trannguyen
#	Modification time:	Thu Dec  1 16:45:11 2022

@<TRIPOS>MOLECULE
CHEMBL321926
 18 19 0 0 0
SMALL
GASTEIGER

@<TRIPOS>ATOM
      1 C          -9.1934   58.9911   78.2267 C.3     1  UNL1        0.0519
      2 C          -7.9015   58.9572   77.4603 C.ar    1  UNL1        0.0589
      3 N          -7.0701   57.9422   77.8006 N.ar    1  UNL1       -0.2497
      4 C          -5.9048   57.8001   77.1583 C.ar    1  UNL1        0.0842
      5 C          -5.0961   56.7241   77.5088 C.ar    1  UNL1        0.0193
      6 C          -3.8644   56.4894   76.8950 C.ar    1  UNL1        0.0039
      7 C          -3.4249   57.3557   75.9077 C.ar    1  UNL1        0.0298
      8 C          -4.2239   58.4375   75.5503 C.ar    1  UNL1        0.1427
      9 F          -3.7505   59.2725   74.6092 F       1  UNL1       -0.2041
     10 C          -5.4785   58.6869   76.1554 C.ar    1  UNL1        0.0578
     11 C          -6.3318   59.7809   75.8401 C.ar    1  UNL1        0.0446
     12 N          -6.0282   60.6314   74.7450 N.pl3   1  UNL1       -0.3571
     13 C          -7.5943   59.8886   76.4634 C.ar    1  UNL1        0.0335
     14 H          -5.0369   60.6159   74.4981 H       1  UNL1        0.1423
     15 H          -6.3583   61.5882   74.8573 H       1  UNL1        0.1423
     16 C          -8.5585   60.9920   76.0966 C.3     1  UNL1        0.1660
     17 O          -9.0449   60.8758   74.7622 O.3     1  UNL1       -0.3772
     18 H          -8.4637   60.2425   74.2954 H       1  UNL1        0.2109
@<TRIPOS>BOND
     1     1     2    1
     2     2     3   ar
     3     2    13   ar
     4     3     4   ar
     5     4     5   ar
     6     4    10   ar
     7     5     6   ar
     8     6     7   ar
     9     7     8   ar
    10     8     9    1
    11     8    10   ar
    12    10    11   ar
    13    11    12    1
    14    11    13   ar
    15    12    14    1
    16    12    15    1
    17    13    16    1
    18    16    17    1
    19    17    18    1



#	Name:			CHEMBL3221005
#	Creating user name:	trannguyen
#	Creation time:		Thu Dec  1 16:45:11 2022


#	Modifying user name:	trannguyen
#	Modification time:	Thu Dec  1 16:45:11 2022

@<TRIPOS>MOLECULE
CHEMBL3221005
 42 46 0 0 0
SMALL
GASTEIGER

@<TRIPOS>ATOM
      1 C          -1.5906   63.8691   77.2990 C.3     1  UNL1        0.0897
      2 C          -3.9335   64.7259   77.4145 C.2     1  UNL1        0.2471
      3 O          -3.9212   65.1972   76.2930 O.2     1  UNL1       -0.2701
      4 N          -2.8639   64.0446   77.9750 N.am    1  UNL1       -0.3008
      5 H          -2.9647   63.6219   78.8874 H       1  UNL1        0.1497
      6 C          -6.1548   63.8243   78.2709 C.ar    1  UNL1        0.0527
      7 C          -7.2240   63.9640   79.1814 C.ar    1  UNL1        0.0148
      8 C          -7.3736   65.0977   79.9815 C.ar    1  UNL1        0.0013
      9 C          -6.4290   66.1107   79.9244 C.ar    1  UNL1        0.0002
     10 C          -5.3267   65.9792   79.0803 C.ar    1  UNL1        0.0058
     11 C          -5.1586   64.8304   78.2757 C.ar    1  UNL1        0.0667
     12 N          -6.0572   62.6329   77.4914 N.pl3   1  UNL1       -0.3127
     13 H          -6.7982   62.6131   76.7774 H       1  UNL1        0.1522
     14 C          -7.2587   57.7500   77.7080 C.3     1  UNL1        0.0307
     15 C          -6.3909   58.9274   78.0765 C.ar    1  UNL1       -0.0246
     16 C          -5.3619   58.7276   79.0037 C.ar    1  UNL1       -0.0045
     17 C          -4.5915   59.7942   79.4415 C.ar    1  UNL1        0.0009
     18 C          -4.8427   61.0758   78.9584 C.ar    1  UNL1        0.0143
     19 C          -5.8191   61.3104   77.9710 C.ar    1  UNL1        0.0440
     20 C          -6.6107   60.2217   77.5295 C.ar    1  UNL1       -0.0124
     21 C          -7.6811   60.4103   76.4832 C.3     1  UNL1        0.0320
     22 C          -0.9201   62.5803   77.7628 C.3     1  UNL1        0.0213
     23 C           0.0025   61.9883   76.6991 C.3     1  UNL1        0.0018
     24 C           1.1564   61.2241   77.3520 C.3     1  UNL1        0.0018
     25 C           1.4678   59.9233   76.6105 C.3     1  UNL1        0.0212
     26 C           1.6445   58.7583   77.5930 C.3     1  UNL1        0.0870
     27 N           0.3330   58.3138   78.0530 N.pl3   1  UNL1       -0.3328
     28 H          -0.2586   59.1279   78.1804 H       1  UNL1        0.1468
     29 C          -0.4207   57.2625   77.4714 C.ar    1  UNL1        0.0431
     30 C          -0.1292   55.8830   77.6295 C.ar    1  UNL1        0.0045
     31 C          -0.9844   54.9542   77.0126 C.ar    1  UNL1        0.0561
     32 N          -2.1249   55.2905   76.3787 N.ar    1  UNL1       -0.2499
     33 C          -2.4611   56.5779   76.2963 C.ar    1  UNL1        0.0820
     34 C          -3.6711   56.8594   75.6743 C.ar    1  UNL1        0.0191
     35 C          -4.1266   58.1641   75.4989 C.ar    1  UNL1        0.0015
     36 C          -3.3539   59.2127   75.9586 C.ar    1  UNL1        0.0001
     37 C          -2.1434   58.9466   76.6077 C.ar    1  UNL1        0.0027
     38 C          -1.6572   57.6196   76.8046 C.ar    1  UNL1        0.0305
     39 C          -0.7322   53.4664   77.0507 C.3     1  UNL1        0.0455
     40 C           0.7024   53.1064   77.4011 C.3     1  UNL1        0.0066
     41 C           1.0924   53.8552   78.6585 C.3     1  UNL1        0.0052
     42 C           1.0571   55.3614   78.4061 C.3     1  UNL1        0.0288
@<TRIPOS>BOND
     1    14    15    1
     2    15    16   ar
     3    15    20   ar
     4    16    17   ar
     5    17    18   ar
     6    18    19   ar
     7    19    12    1
     8    19    20   ar
     9    12     6    1
    10    12    13    1
    11     6     7   ar
    12     6    11   ar
    13     7     8   ar
    14     8     9   ar
    15     9    10   ar
    16    10    11   ar
    17    11     2    1
    18     2     3    2
    19     2     4   am
    20     4     1    1
    21     4     5    1
    22     1    22    1
    23    22    23    1
    24    23    24    1
    25    24    25    1
    26    25    26    1
    27    26    27    1
    28    27    29    1
    29    27    28    1
    30    29    30   ar
    31    29    38   ar
    32    30    31   ar
    33    30    42    1
    34    31    32   ar
    35    31    39    1
    36    32    33   ar
    37    33    34   ar
    38    33    38   ar
    39    34    35   ar
    40    35    36   ar
    41    36    37   ar
    42    37    38   ar
    43    39    40    1
    44    40    41    1
    45    41    42    1
    46    20    21    1



#	Name:			CHEMBL3221272
#	Creating user name:	trannguyen
#	Creation time:		Thu Dec  1 16:45:11 2022


#	Modifying user name:	trannguyen
#	Modification time:	Thu Dec  1 16:45:11 2022

@<TRIPOS>MOLECULE
CHEMBL3221272
 46 50 0 0 0
SMALL
GASTEIGER

@<TRIPOS>ATOM
      1 C          -1.6039   62.2183   77.8550 C.3     1  UNL1        0.0868
      2 C          -0.3484   61.9788   77.0222 C.2     1  UNL1        0.2225
      3 O          -0.0871   62.6217   76.0131 O.2     1  UNL1       -0.2751
      4 N           0.4344   60.9338   77.4779 N.am    1  UNL1       -0.3043
      5 H           0.0996   60.3744   78.2518 H       1  UNL1        0.1494
      6 C           1.6720   60.5299   76.8204 C.3     1  UNL1        0.0911
      7 C           1.4415   59.3528   75.8631 C.3     1  UNL1        0.0424
      8 C           1.6362   58.0089   76.5624 C.3     1  UNL1        0.0888
      9 N           0.5176   57.6872   77.4550 N.pl3   1  UNL1       -0.3328
     10 H           0.2068   58.4693   78.0173 H       1  UNL1        0.1468
     11 C          -0.5271   56.8119   77.0612 C.ar    1  UNL1        0.0431
     12 C          -1.7867   57.2896   76.6030 C.ar    1  UNL1        0.0045
     13 C          -2.7440   56.3431   76.2200 C.ar    1  UNL1        0.0561
     14 N          -2.5127   55.0153   76.1851 N.ar    1  UNL1       -0.2499
     15 C          -1.3362   54.5498   76.5949 C.ar    1  UNL1        0.0820
     16 C          -1.1938   53.1685   76.5562 C.ar    1  UNL1        0.0191
     17 C          -0.0493   52.5274   77.0166 C.ar    1  UNL1        0.0015
     18 C           0.9839   53.2931   77.5278 C.ar    1  UNL1        0.0001
     19 C           0.8719   54.6935   77.5433 C.ar    1  UNL1        0.0027
     20 C          -0.2932   55.3761   77.0704 C.ar    1  UNL1        0.0305
     21 C          -4.1308   56.7320   75.7788 C.3     1  UNL1        0.0455
     22 C          -4.5532   58.1043   76.2778 C.3     1  UNL1        0.0066
     23 C          -3.4884   59.1099   75.8886 C.3     1  UNL1        0.0052
     24 C          -2.1631   58.7555   76.5565 C.3     1  UNL1        0.0288
     25 C          -1.9558   63.7085   77.9648 C.3     1  UNL1        0.0308
     26 C          -3.3496   63.9316   78.5580 C.3     1  UNL1        0.0902
     27 C          -5.0472   62.1454   78.9843 C.2     1  UNL1        0.2471
     28 O          -4.9966   62.2471   80.2165 O.2     1  UNL1       -0.2701
     29 N          -4.3090   62.9395   78.1134 N.am    1  UNL1       -0.3008
     30 H          -4.5279   62.9210   77.1271 H       1  UNL1        0.1497
     31 C          -6.2350   59.8658   78.9056 C.ar    1  UNL1        0.0527
     32 C          -7.3738   59.2139   78.3989 C.ar    1  UNL1        0.0148
     33 C          -8.0585   59.6745   77.2714 C.ar    1  UNL1        0.0013
     34 C          -7.6145   60.8058   76.6086 C.ar    1  UNL1        0.0002
     35 C          -6.5673   61.5382   77.1503 C.ar    1  UNL1        0.0058
     36 C          -5.9479   61.1352   78.3493 C.ar    1  UNL1        0.0667
     37 N          -5.5420   59.2866   80.0087 N.pl3   1  UNL1       -0.3127
     38 H          -5.5809   59.9207   80.8158 H       1  UNL1        0.1522
     39 C          -2.7911   55.0484   79.8656 C.3     1  UNL1        0.0307
     40 C          -2.9380   56.5434   79.9949 C.ar    1  UNL1       -0.0246
     41 C          -1.7779   57.2879   80.2519 C.ar    1  UNL1       -0.0045
     42 C          -1.8375   58.6706   80.3577 C.ar    1  UNL1        0.0009
     43 C          -3.0620   59.3312   80.2284 C.ar    1  UNL1        0.0143
     44 C          -4.2618   58.6248   80.0043 C.ar    1  UNL1        0.0440
     45 C          -4.1927   57.2080   79.8837 C.ar    1  UNL1       -0.0124
     46 C          -5.4585   56.4104   79.6737 C.3     1  UNL1        0.0320
@<TRIPOS>BOND
     1    39    40    1
     2    40    41   ar
     3    40    45   ar
     4    41    42   ar
     5    42    43   ar
     6    43    44   ar
     7    44    37    1
     8    44    45   ar
     9    37    31    1
    10    37    38    1
    11    31    32   ar
    12    31    36   ar
    13    32    33   ar
    14    33    34   ar
    15    34    35   ar
    16    35    36   ar
    17    36    27    1
    18    27    28    2
    19    27    29   am
    20    29    26    1
    21    29    30    1
    22    26    25    1
    23    25     1    1
    24     1     2    1
    25     2     3    2
    26     2     4   am
    27     4     6    1
    28     4     5    1
    29     6     7    1
    30     7     8    1
    31     8     9    1
    32     9    11    1
    33     9    10    1
    34    11    12   ar
    35    11    20   ar
    36    12    13   ar
    37    12    24    1
    38    13    14   ar
    39    13    21    1
    40    14    15   ar
    41    15    16   ar
    42    15    20   ar
    43    16    17   ar
    44    17    18   ar
    45    18    19   ar
    46    19    20   ar
    47    21    22    1
    48    22    23    1
    49    23    24    1
    50    45    46    1



#	Name:			CHEMBL3221273
#	Creating user name:	trannguyen
#	Creation time:		Thu Dec  1 16:45:11 2022


#	Modifying user name:	trannguyen
#	Modification time:	Thu Dec  1 16:45:11 2022

@<TRIPOS>MOLECULE
CHEMBL3221273
 48 52 0 0 0
SMALL
GASTEIGER

@<TRIPOS>ATOM
      1 C          -6.8335   81.1592   70.7914 C.3     1  UNL1        0.0096
      2 C          -5.8720   81.0757   71.9799 C.3     1  UNL1        0.0023
      3 C          -6.4471   80.2917   73.1696 C.3     1  UNL1        0.0213
      4 C          -6.4485   81.1106   74.4587 C.3     1  UNL1        0.0897
      5 C          -6.7096   79.8573   76.6301 C.2     1  UNL1        0.2471
      6 O          -7.9158   79.8887   76.5932 O.2     1  UNL1       -0.2701
      7 N          -5.9128   80.3493   75.5840 N.am    1  UNL1       -0.3008
      8 H          -4.9289   80.1435   75.5745 H       1  UNL1        0.1497
      9 C          -6.3788   78.1952   78.5993 C.ar    1  UNL1        0.0527
     10 C          -5.6184   77.8519   79.7394 C.ar    1  UNL1        0.0148
     11 C          -4.5077   78.5907   80.1419 C.ar    1  UNL1        0.0013
     12 C          -4.1217   79.7041   79.4129 C.ar    1  UNL1        0.0002
     13 C          -4.8448   80.0699   78.2763 C.ar    1  UNL1        0.0058
     14 C          -5.9593   79.3206   77.8349 C.ar    1  UNL1        0.0667
     15 N          -7.4944   77.3789   78.2865 N.pl3   1  UNL1       -0.3127
     16 H          -8.3710   77.8833   78.3449 H       1  UNL1        0.1522
     17 C          -7.8507   72.3912   78.5060 C.3     1  UNL1        0.0307
     18 C          -7.7579   73.6668   77.7054 C.ar    1  UNL1       -0.0246
     19 C          -7.4647   73.5942   76.3406 C.ar    1  UNL1       -0.0045
     20 C          -7.2532   74.7589   75.6120 C.ar    1  UNL1        0.0009
     21 C          -7.2629   76.0011   76.2565 C.ar    1  UNL1        0.0143
     22 C          -7.5767   76.1224   77.6225 C.ar    1  UNL1        0.0440
     23 C          -7.9296   74.9384   78.3191 C.ar    1  UNL1       -0.0124
     24 C          -8.5307   74.9786   79.7005 C.3     1  UNL1        0.0320
     25 C          -6.1560   80.8555   69.4591 C.3     1  UNL1        0.0850
     26 C          -6.1994   79.3805   69.1377 C.2     1  UNL1        0.2225
     27 O          -5.3453   78.6026   69.5637 O.2     1  UNL1       -0.2751
     28 N          -7.2267   78.8958   68.3850 N.am    1  UNL1       -0.3043
     29 H          -7.1854   77.8899   68.2595 H       1  UNL1        0.1494
     30 C          -8.3582   79.6004   67.8134 C.3     1  UNL1        0.0911
     31 C          -9.6688   78.8705   68.0723 C.3     1  UNL1        0.0424
     32 C          -9.4482   77.3999   68.3881 C.3     1  UNL1        0.0888
     33 N         -10.3943   76.8723   69.3656 N.pl3   1  UNL1       -0.3328
     34 H         -10.9204   76.1033   68.9646 H       1  UNL1        0.1468
     35 C         -10.1189   76.6795   70.7378 C.ar    1  UNL1        0.0431
     36 C          -9.9270   75.3400   71.1947 C.ar    1  UNL1        0.0045
     37 C          -9.7830   75.1196   72.5680 C.ar    1  UNL1        0.0561
     38 N          -9.7084   76.1177   73.4675 N.ar    1  UNL1       -0.2499
     39 C          -9.8544   77.3757   73.0569 C.ar    1  UNL1        0.0820
     40 C          -9.7773   78.3399   74.0527 C.ar    1  UNL1        0.0191
     41 C          -9.9514   79.6943   73.7900 C.ar    1  UNL1        0.0015
     42 C         -10.2525   80.0894   72.5028 C.ar    1  UNL1        0.0001
     43 C         -10.3533   79.1261   71.4946 C.ar    1  UNL1        0.0027
     44 C         -10.1047   77.7409   71.7147 C.ar    1  UNL1        0.0305
     45 C          -9.6690   73.7433   73.1708 C.3     1  UNL1        0.0455
     46 C         -10.0878   72.6251   72.2285 C.3     1  UNL1        0.0066
     47 C          -9.4276   72.8388   70.8792 C.3     1  UNL1        0.0052
     48 C          -9.9153   74.1486   70.2541 C.3     1  UNL1        0.0288
@<TRIPOS>BOND
     1    17    18    1
     2    18    19   ar
     3    18    23   ar
     4    19    20   ar
     5    20    21   ar
     6    21    22   ar
     7    22    15    1
     8    22    23   ar
     9    15     9    1
    10    15    16    1
    11     9    10   ar
    12     9    14   ar
    13    10    11   ar
    14    11    12   ar
    15    12    13   ar
    16    13    14   ar
    17    14     5    1
    18     5     6    2
    19     5     7   am
    20     7     4    1
    21     7     8    1
    22     4     3    1
    23     3     2    1
    24     2     1    1
    25     1    25    1
    26    25    26    1
    27    26    27    2
    28    26    28   am
    29    28    30    1
    30    28    29    1
    31    30    31    1
    32    31    32    1
    33    32    33    1
    34    33    35    1
    35    33    34    1
    36    35    36   ar
    37    35    44   ar
    38    36    37   ar
    39    36    48    1
    40    37    38   ar
    41    37    45    1
    42    38    39   ar
    43    39    40   ar
    44    39    44   ar
    45    40    41   ar
    46    41    42   ar
    47    42    43   ar
    48    43    44   ar
    49    45    46    1
    50    46    47    1
    51    47    48    1
    52    23    24    1



#	Name:			CHEMBL3221279
#	Creating user name:	trannguyen
#	Creation time:		Thu Dec  1 16:45:11 2022


#	Modifying user name:	trannguyen
#	Modification time:	Thu Dec  1 16:45:11 2022

@<TRIPOS>MOLECULE
CHEMBL3221279
 48 52 0 0 0
SMALL
GASTEIGER

@<TRIPOS>ATOM
      1 C           3.4288   63.2345   67.3775 C.2     1  UNL1        0.2242
      2 O           3.0094   64.2066   67.9962 O.2     1  UNL1       -0.2750
      3 N           3.1658   61.9294   67.7164 N.am    1  UNL1       -0.3043
      4 H           3.5465   61.1842   67.1429 H       1  UNL1        0.1494
      5 C           4.2883   63.3871   66.1465 C.3     1  UNL1        0.1062
      6 C           3.4294   63.3812   64.8914 C.3     1  UNL1        0.0993
      7 C           3.2035   65.8470   64.3971 C.2     1  UNL1        0.2471
      8 O           2.4104   66.0600   65.3081 O.2     1  UNL1       -0.2701
      9 N           3.6749   64.5834   64.1022 N.am    1  UNL1       -0.3003
     10 H           4.2505   64.4317   63.2907 H       1  UNL1        0.1498
     11 C           3.8914   68.2784   64.0575 C.ar    1  UNL1        0.0527
     12 C           4.3778   69.2764   63.1885 C.ar    1  UNL1        0.0148
     13 C           4.6981   69.0156   61.8567 C.ar    1  UNL1        0.0013
     14 C           4.5704   67.7300   61.3633 C.ar    1  UNL1        0.0002
     15 C           4.1083   66.7151   62.2008 C.ar    1  UNL1        0.0058
     16 C           3.7344   66.9706   63.5406 C.ar    1  UNL1        0.0667
     17 N           3.5724   68.6180   65.3925 N.pl3   1  UNL1       -0.3127
     18 H           2.6307   68.3484   65.6904 H       1  UNL1        0.1522
     19 C           3.9022   71.1527   69.7312 C.3     1  UNL1        0.0307
     20 C           4.4856   70.6284   68.4444 C.ar    1  UNL1       -0.0246
     21 C           5.7961   70.9924   68.1102 C.ar    1  UNL1       -0.0045
     22 C           6.3535   70.5899   66.9001 C.ar    1  UNL1        0.0009
     23 C           5.5947   69.8344   66.0078 C.ar    1  UNL1        0.0143
     24 C           4.2868   69.4227   66.3092 C.ar    1  UNL1        0.0440
     25 C           3.7399   69.7940   67.5685 C.ar    1  UNL1       -0.0124
     26 C           2.3904   69.2890   68.0117 C.3     1  UNL1        0.0320
     27 C           2.2809   61.5576   68.8016 C.3     1  UNL1        0.0894
     28 C           2.7730   60.3362   69.5792 C.3     1  UNL1        0.0212
     29 C           2.3104   60.3399   71.0398 C.3     1  UNL1        0.0018
     30 C           2.3639   58.9405   71.6606 C.3     1  UNL1        0.0018
     31 C           3.1040   58.9699   73.0041 C.3     1  UNL1        0.0212
     32 C           2.3222   59.6546   74.1281 C.3     1  UNL1        0.0870
     33 N           1.9606   58.7346   75.1877 N.pl3   1  UNL1       -0.3328
     34 H           2.0730   57.7734   74.8827 H       1  UNL1        0.1468
     35 C           1.0781   58.8259   76.2662 C.ar    1  UNL1        0.0431
     36 C          -0.2416   58.3162   76.3109 C.ar    1  UNL1        0.0045
     37 C          -0.9985   58.5597   77.4725 C.ar    1  UNL1        0.0561
     38 N          -0.5267   59.2082   78.5596 N.ar    1  UNL1       -0.2499
     39 C           0.6969   59.7290   78.5156 C.ar    1  UNL1        0.0820
     40 C           1.1256   60.4338   79.6346 C.ar    1  UNL1        0.0191
     41 C           2.3652   61.0680   79.6812 C.ar    1  UNL1        0.0015
     42 C           3.1957   61.0094   78.5768 C.ar    1  UNL1        0.0001
     43 C           2.7853   60.2933   77.4495 C.ar    1  UNL1        0.0027
     44 C           1.5375   59.6087   77.3922 C.ar    1  UNL1        0.0305
     45 C          -2.4207   58.0814   77.6320 C.3     1  UNL1        0.0455
     46 C          -3.1110   57.8048   76.3074 C.3     1  UNL1        0.0066
     47 C          -2.2274   56.8867   75.4873 C.3     1  UNL1        0.0052
     48 C          -0.8973   57.5732   75.1699 C.3     1  UNL1        0.0288
@<TRIPOS>BOND
     1    19    20    1
     2    20    21   ar
     3    20    25   ar
     4    21    22   ar
     5    22    23   ar
     6    23    24   ar
     7    24    17    1
     8    24    25   ar
     9    17    11    1
    10    17    18    1
    11    11    12   ar
    12    11    16   ar
    13    12    13   ar
    14    13    14   ar
    15    14    15   ar
    16    15    16   ar
    17    16     7    1
    18     7     8    2
    19     7     9   am
    20     9     6    1
    21     9    10    1
    22     6     5    1
    23     5     1    1
    24     1     2    2
    25     1     3   am
    26     3    27    1
    27     3     4    1
    28    27    28    1
    29    28    29    1
    30    29    30    1
    31    30    31    1
    32    31    32    1
    33    32    33    1
    34    33    35    1
    35    33    34    1
    36    35    36   ar
    37    35    44   ar
    38    36    37   ar
    39    36    48    1
    40    37    38   ar
    41    37    45    1
    42    38    39   ar
    43    39    40   ar
    44    39    44   ar
    45    40    41   ar
    46    41    42   ar
    47    42    43   ar
    48    43    44   ar
    49    45    46    1
    50    46    47    1
    51    47    48    1
    52    25    26    1



#	Name:			CHEMBL3221280
#	Creating user name:	trannguyen
#	Creation time:		Thu Dec  1 16:45:11 2022


#	Modifying user name:	trannguyen
#	Modification time:	Thu Dec  1 16:45:11 2022

@<TRIPOS>MOLECULE
CHEMBL3221280
 49 53 0 0 0
SMALL
GASTEIGER

@<TRIPOS>ATOM
      1 C           3.3944   61.6992   68.2687 C.2     1  UNL1        0.2225
      2 O           4.5468   61.2431   68.2948 O.2     1  UNL1       -0.2751
      3 N           2.3414   61.1508   68.9635 N.am    1  UNL1       -0.3043
      4 H           1.3943   61.3992   68.6827 H       1  UNL1        0.1494
      5 C           3.0358   62.9432   67.4771 C.3     1  UNL1        0.0868
      6 C           4.1571   63.3452   66.5155 C.3     1  UNL1        0.0308
      7 C           3.6739   63.3955   65.0699 C.3     1  UNL1        0.0902
      8 C           3.3775   65.7865   64.4553 C.2     1  UNL1        0.2471
      9 O           2.4635   65.9405   65.3067 O.2     1  UNL1       -0.2701
     10 N           4.1066   64.6010   64.3602 N.am    1  UNL1       -0.3008
     11 H           4.7870   64.4616   63.6332 H       1  UNL1        0.1497
     12 C           3.5550   68.2765   63.8897 C.ar    1  UNL1        0.0527
     13 C           3.8155   69.2634   62.9198 C.ar    1  UNL1        0.0148
     14 C           4.1270   68.9475   61.6018 C.ar    1  UNL1        0.0013
     15 C           4.2493   67.6224   61.2390 C.ar    1  UNL1        0.0002
     16 C           4.0382   66.6152   62.1858 C.ar    1  UNL1        0.0058
     17 C           3.6803   66.9133   63.5314 C.ar    1  UNL1        0.0667
     18 N           3.1973   68.7362   65.2108 N.pl3   1  UNL1       -0.3127
     19 H           2.1962   68.9052   65.3362 H       1  UNL1        0.1522
     20 C           4.2573   70.8889   69.6858 C.3     1  UNL1        0.0307
     21 C           4.5884   70.4899   68.2679 C.ar    1  UNL1       -0.0246
     22 C           5.8922   70.7327   67.8160 C.ar    1  UNL1       -0.0045
     23 C           6.2701   70.3828   66.5293 C.ar    1  UNL1        0.0009
     24 C           5.3301   69.8418   65.6588 C.ar    1  UNL1        0.0143
     25 C           4.0387   69.4840   66.0903 C.ar    1  UNL1        0.0440
     26 C           3.6723   69.7949   67.4244 C.ar    1  UNL1       -0.0124
     27 C           2.3912   69.2771   68.0258 C.3     1  UNL1        0.0320
     28 C           2.4911   59.9365   69.7419 C.3     1  UNL1        0.0894
     29 C           2.1923   60.1695   71.2298 C.3     1  UNL1        0.0212
     30 C           2.5443   59.0508   72.2273 C.3     1  UNL1        0.0018
     31 C           3.5898   59.3825   73.2953 C.3     1  UNL1        0.0018
     32 C           2.9590   59.9457   74.5658 C.3     1  UNL1        0.0212
     33 C           1.5950   59.3721   74.8462 C.3     1  UNL1        0.0870
     34 N           1.1332   59.7201   76.1911 N.pl3   1  UNL1       -0.3328
     35 H           1.1091   60.7218   76.3567 H       1  UNL1        0.1468
     36 C           1.4763   58.9508   77.3306 C.ar    1  UNL1        0.0431
     37 C           0.8315   57.7247   77.6423 C.ar    1  UNL1        0.0045
     38 C           1.1741   57.0649   78.8286 C.ar    1  UNL1        0.0561
     39 N           2.0916   57.5299   79.6956 N.ar    1  UNL1       -0.2499
     40 C           2.6695   58.7009   79.4518 C.ar    1  UNL1        0.0820
     41 C           3.5385   59.1469   80.4352 C.ar    1  UNL1        0.0191
     42 C           4.1873   60.3712   80.3404 C.ar    1  UNL1        0.0015
     43 C           3.9788   61.1570   79.2189 C.ar    1  UNL1        0.0001
     44 C           3.1185   60.7130   78.2043 C.ar    1  UNL1        0.0027
     45 C           2.4182   59.4758   78.2939 C.ar    1  UNL1        0.0305
     46 C           0.5764   55.7375   79.2195 C.3     1  UNL1        0.0455
     47 C          -0.7495   55.4196   78.5456 C.3     1  UNL1        0.0066
     48 C          -0.6514   55.7089   77.0714 C.3     1  UNL1        0.0052
     49 C          -0.2974   57.1578   76.8250 C.3     1  UNL1        0.0288
@<TRIPOS>BOND
     1    20    21    1
     2    21    22   ar
     3    21    26   ar
     4    22    23   ar
     5    23    24   ar
     6    24    25   ar
     7    25    18    1
     8    25    26   ar
     9    18    12    1
    10    18    19    1
    11    12    13   ar
    12    12    17   ar
    13    13    14   ar
    14    14    15   ar
    15    15    16   ar
    16    16    17   ar
    17    17     8    1
    18     8     9    2
    19     8    10   am
    20    10     7    1
    21    10    11    1
    22     7     6    1
    23     6     5    1
    24     5     1    1
    25     1     2    2
    26     1     3   am
    27     3    28    1
    28     3     4    1
    29    28    29    1
    30    29    30    1
    31    30    31    1
    32    31    32    1
    33    32    33    1
    34    33    34    1
    35    34    36    1
    36    34    35    1
    37    36    37   ar
    38    36    45   ar
    39    37    38   ar
    40    37    49    1
    41    38    39   ar
    42    38    46    1
    43    39    40   ar
    44    40    41   ar
    45    40    45   ar
    46    41    42   ar
    47    42    43   ar
    48    43    44   ar
    49    44    45   ar
    50    46    47    1
    51    47    48    1
    52    48    49    1
    53    26    27    1



#	Name:			CHEMBL3221285
#	Creating user name:	trannguyen
#	Creation time:		Thu Dec  1 16:45:11 2022


#	Modifying user name:	trannguyen
#	Modification time:	Thu Dec  1 16:45:11 2022

@<TRIPOS>MOLECULE
CHEMBL3221285
 52 56 0 0 0
SMALL
GASTEIGER

@<TRIPOS>ATOM
      1 C           2.5670   60.1922   70.6000 C.2     1  UNL1        0.2225
      2 O           2.5630   61.2280   71.2616 O.2     1  UNL1       -0.2751
      3 N           2.4916   58.9297   71.1491 N.am    1  UNL1       -0.3043
      4 H           2.5745   58.1264   70.5401 H       1  UNL1        0.1494
      5 C           2.7271   60.2075   69.0932 C.3     1  UNL1        0.0850
      6 C           2.5669   61.6024   68.4956 C.3     1  UNL1        0.0096
      7 C           3.7719   62.0191   67.6433 C.3     1  UNL1        0.0023
      8 C           3.6864   63.4317   67.0318 C.3     1  UNL1        0.0213
      9 C           3.6913   63.3487   65.4945 C.3     1  UNL1        0.0897
     10 C           3.2412   65.7084   64.8151 C.2     1  UNL1        0.2471
     11 O           2.1080   65.7444   65.3333 O.2     1  UNL1       -0.2701
     12 N           4.0570   64.5904   64.8175 N.am    1  UNL1       -0.3008
     13 H           5.0391   64.7608   64.6188 H       1  UNL1        0.1497
     14 C           3.5503   68.2188   64.3425 C.ar    1  UNL1        0.0527
     15 C           3.8455   69.1720   63.3282 C.ar    1  UNL1        0.0148
     16 C           4.2361   68.8079   62.0288 C.ar    1  UNL1        0.0013
     17 C           4.3693   67.4679   61.7032 C.ar    1  UNL1        0.0002
     18 C           4.1078   66.5038   62.6784 C.ar    1  UNL1        0.0058
     19 C           3.7241   66.8577   64.0055 C.ar    1  UNL1        0.0667
     20 N           3.0971   68.7391   65.5842 N.pl3   1  UNL1       -0.3127
     21 H           2.0811   68.7526   65.6347 H       1  UNL1        0.1522
     22 C           7.1702   70.5617   67.8329 C.3     1  UNL1        0.0307
     23 C           5.6685   70.4018   67.7849 C.ar    1  UNL1       -0.0246
     24 C           4.8866   70.7827   68.8714 C.ar    1  UNL1       -0.0045
     25 C           3.5152   70.5244   68.8583 C.ar    1  UNL1        0.0009
     26 C           2.9181   69.8224   67.7960 C.ar    1  UNL1        0.0143
     27 C           3.6553   69.4625   66.6687 C.ar    1  UNL1        0.0440
     28 C           5.0201   69.8739   66.6348 C.ar    1  UNL1       -0.0124
     29 C           5.7920   69.9440   65.3411 C.3     1  UNL1        0.0320
     30 C           2.3998   58.6892   72.5787 C.3     1  UNL1        0.0894
     31 C           3.6774   59.0694   73.3300 C.3     1  UNL1        0.0212
     32 C           3.4281   60.1243   74.4096 C.3     1  UNL1        0.0017
     33 C           2.1679   59.8142   75.2106 C.3     1  UNL1        0.0001
     34 C           1.8556   60.9121   76.2234 C.3     1  UNL1        0.0017
     35 C           1.2886   60.3030   77.5146 C.3     1  UNL1        0.0212
     36 C           1.4523   58.7947   77.5119 C.3     1  UNL1        0.0870
     37 N           0.3570   58.1257   78.2273 N.pl3   1  UNL1       -0.3328
     38 H           0.6603   57.7752   79.1369 H       1  UNL1        0.1468
     39 C          -0.4555   57.1428   77.5897 C.ar    1  UNL1        0.0431
     40 C          -1.6274   57.4540   76.8578 C.ar    1  UNL1        0.0045
     41 C          -2.3409   56.4028   76.2693 C.ar    1  UNL1        0.0561
     42 N          -1.9086   55.1260   76.2509 N.ar    1  UNL1       -0.2499
     43 C          -0.7919   54.8155   76.9061 C.ar    1  UNL1        0.0820
     44 C          -0.4195   53.4775   76.8718 C.ar    1  UNL1        0.0191
     45 C           0.6816   52.9994   77.5743 C.ar    1  UNL1        0.0015
     46 C           1.4109   53.8822   78.3557 C.ar    1  UNL1        0.0001
     47 C           1.0602   55.2427   78.3878 C.ar    1  UNL1        0.0027
     48 C          -0.0308   55.7604   77.6327 C.ar    1  UNL1        0.0305
     49 C          -3.6633   56.6219   75.5776 C.3     1  UNL1        0.0455
     50 C          -4.3334   57.9370   75.9526 C.3     1  UNL1        0.0066
     51 C          -3.3346   59.0617   75.7895 C.3     1  UNL1        0.0052
     52 C          -2.1808   58.8498   76.7455 C.3     1  UNL1        0.0288
@<TRIPOS>BOND
     1    22    23    1
     2    23    24   ar
     3    23    28   ar
     4    24    25   ar
     5    25    26   ar
     6    26    27   ar
     7    27    20    1
     8    27    28   ar
     9    20    14    1
    10    20    21    1
    11    14    15   ar
    12    14    19   ar
    13    15    16   ar
    14    16    17   ar
    15    17    18   ar
    16    18    19   ar
    17    19    10    1
    18    10    11    2
    19    10    12   am
    20    12     9    1
    21    12    13    1
    22     9     8    1
    23     8     7    1
    24     7     6    1
    25     6     5    1
    26     5     1    1
    27     1     2    2
    28     1     3   am
    29     3    30    1
    30     3     4    1
    31    30    31    1
    32    31    32    1
    33    32    33    1
    34    33    34    1
    35    34    35    1
    36    35    36    1
    37    36    37    1
    38    37    39    1
    39    37    38    1
    40    39    40   ar
    41    39    48   ar
    42    40    41   ar
    43    40    52    1
    44    41    42   ar
    45    41    49    1
    46    42    43   ar
    47    43    44   ar
    48    43    48   ar
    49    44    45   ar
    50    45    46   ar
    51    46    47   ar
    52    47    48   ar
    53    49    50    1
    54    50    51    1
    55    51    52    1
    56    28    29    1



#	Name:			CHEMBL3221287
#	Creating user name:	trannguyen
#	Creation time:		Thu Dec  1 16:45:11 2022


#	Modifying user name:	trannguyen
#	Modification time:	Thu Dec  1 16:45:11 2022

@<TRIPOS>MOLECULE
CHEMBL3221287
 50 54 0 0 0
SMALL
GASTEIGER

@<TRIPOS>ATOM
      1 C           3.6698   63.4814   66.7403 C.2     1  UNL1        0.2242
      2 O           3.3322   64.4756   67.3637 O.2     1  UNL1       -0.2750
      3 N           3.7600   62.2218   67.3044 N.am    1  UNL1       -0.3043
      4 H           4.0040   61.4259   66.7301 H       1  UNL1        0.1494
      5 C           3.3713   61.9893   68.6759 C.3     1  UNL1        0.0894
      6 C           2.2005   61.0144   68.7559 C.3     1  UNL1        0.0212
      7 C           2.4885   59.8449   69.6998 C.3     1  UNL1        0.0017
      8 C           2.1332   60.1324   71.1653 C.3     1  UNL1        0.0001
      9 C           2.4515   59.0014   72.1600 C.3     1  UNL1        0.0001
     10 C           3.5382   59.3541   73.1894 C.3     1  UNL1        0.0017
     11 C           2.9485   59.8420   74.5260 C.3     1  UNL1        0.0212
     12 C           1.5256   59.3137   74.7774 C.3     1  UNL1        0.0870
     13 N           1.1115   59.5412   76.1599 N.pl3   1  UNL1       -0.3328
     14 H           1.0372   60.5340   76.3655 H       1  UNL1        0.1468
     15 C           1.4260   58.7927   77.3107 C.ar    1  UNL1        0.0431
     16 C           2.3037   59.4150   78.2643 C.ar    1  UNL1        0.0045
     17 C           2.6344   58.7069   79.4237 C.ar    1  UNL1        0.0561
     18 N           2.0991   57.5119   79.7332 N.ar    1  UNL1       -0.2499
     19 C           1.2534   56.9342   78.8817 C.ar    1  UNL1        0.0820
     20 C           0.7654   55.6973   79.2893 C.ar    1  UNL1        0.0191
     21 C          -0.0957   54.9341   78.5081 C.ar    1  UNL1        0.0015
     22 C          -0.4759   55.4197   77.2792 C.ar    1  UNL1        0.0001
     23 C          -0.0047   56.6676   76.8642 C.ar    1  UNL1        0.0027
     24 C           0.8703   57.4930   77.6405 C.ar    1  UNL1        0.0305
     25 C           3.6279   59.2152   80.4359 C.3     1  UNL1        0.0455
     26 C           4.6116   60.2024   79.8300 C.3     1  UNL1        0.0066
     27 C           3.8239   61.3231   79.1730 C.3     1  UNL1        0.0052
     28 C           2.9243   60.7895   78.0418 C.3     1  UNL1        0.0288
     29 C           4.0654   63.5022   65.2783 C.3     1  UNL1        0.1062
     30 C           3.0196   64.2020   64.4194 C.3     1  UNL1        0.0993
     31 C           3.1369   66.6849   64.0987 C.2     1  UNL1        0.2471
     32 O           2.3255   66.9291   65.0071 O.2     1  UNL1       -0.2701
     33 N           3.4767   65.3986   63.7428 N.am    1  UNL1       -0.3003
     34 H           4.1603   65.2170   63.0248 H       1  UNL1        0.1498
     35 C           4.8614   68.5519   63.9411 C.ar    1  UNL1        0.0527
     36 C           5.5240   69.4794   63.1168 C.ar    1  UNL1        0.0148
     37 C           5.0876   69.7859   61.8304 C.ar    1  UNL1        0.0013
     38 C           3.9927   69.1296   61.3065 C.ar    1  UNL1        0.0002
     39 C           3.3636   68.1427   62.0598 C.ar    1  UNL1        0.0058
     40 C           3.7988   67.8098   63.3659 C.ar    1  UNL1        0.0667
     41 N           5.3208   68.3892   65.2903 N.pl3   1  UNL1       -0.3127
     42 H           5.0128   67.4889   65.6835 H       1  UNL1        0.1522
     43 C           3.4984   71.2557   69.0457 C.3     1  UNL1        0.0307
     44 C           4.5927   70.7951   68.1205 C.ar    1  UNL1       -0.0246
     45 C           5.8760   71.3278   68.3131 C.ar    1  UNL1       -0.0045
     46 C           6.9165   70.9785   67.4661 C.ar    1  UNL1        0.0009
     47 C           6.6883   70.0716   66.4348 C.ar    1  UNL1        0.0143
     48 C           5.4431   69.4287   66.2638 C.ar    1  UNL1        0.0440
     49 C           4.3643   69.8324   67.0923 C.ar    1  UNL1       -0.0124
     50 C           2.9779   69.2451   66.9598 C.3     1  UNL1        0.0320
@<TRIPOS>BOND
     1    43    44    1
     2    44    45   ar
     3    44    49   ar
     4    45    46   ar
     5    46    47   ar
     6    47    48   ar
     7    48    41    1
     8    48    49   ar
     9    41    35    1
    10    41    42    1
    11    35    36   ar
    12    35    40   ar
    13    36    37   ar
    14    37    38   ar
    15    38    39   ar
    16    39    40   ar
    17    40    31    1
    18    31    32    2
    19    31    33   am
    20    33    30    1
    21    33    34    1
    22    30    29    1
    23    29     1    1
    24     1     2    2
    25     1     3   am
    26     3     5    1
    27     3     4    1
    28     5     6    1
    29     6     7    1
    30     7     8    1
    31     8     9    1
    32     9    10    1
    33    10    11    1
    34    11    12    1
    35    12    13    1
    36    13    15    1
    37    13    14    1
    38    15    16   ar
    39    15    24   ar
    40    16    17   ar
    41    16    28    1
    42    17    18   ar
    43    17    25    1
    44    18    19   ar
    45    19    20   ar
    46    19    24   ar
    47    20    21   ar
    48    21    22   ar
    49    22    23   ar
    50    23    24   ar
    51    25    26    1
    52    26    27    1
    53    27    28    1
    54    49    50    1



#	Name:			CHEMBL3221568
#	Creating user name:	trannguyen
#	Creation time:		Thu Dec  1 16:45:11 2022


#	Modifying user name:	trannguyen
#	Modification time:	Thu Dec  1 16:45:11 2022

@<TRIPOS>MOLECULE
CHEMBL3221568
 51 55 0 0 0
SMALL
GASTEIGER

@<TRIPOS>ATOM
      1 C          -1.5032   63.9340   76.8142 C.2     1  UNL1        0.2242
      2 O          -2.2338   64.6045   76.0906 O.2     1  UNL1       -0.2750
      3 N          -1.5972   63.9202   78.1881 N.am    1  UNL1       -0.3043
      4 H          -0.8059   63.5837   78.7200 H       1  UNL1        0.1494
      5 C          -2.5557   64.7417   78.8913 C.3     1  UNL1        0.0894
      6 C          -3.9723   64.2025   78.7011 C.3     1  UNL1        0.0212
      7 C          -4.2094   62.8952   79.4585 C.3     1  UNL1        0.0017
      8 C          -4.7192   61.7931   78.5326 C.3     1  UNL1        0.0001
      9 C          -6.1824   61.4476   78.7842 C.3     1  UNL1        0.0001
     10 C          -7.0675   62.5519   78.2085 C.3     1  UNL1        0.0017
     11 C          -8.2074   62.0040   77.3529 C.3     1  UNL1        0.0212
     12 C          -7.7575   61.7661   75.9072 C.3     1  UNL1        0.0870
     13 N          -7.9747   60.3832   75.5113 N.pl3   1  UNL1       -0.3328
     14 H          -8.8992   60.2207   75.1140 H       1  UNL1        0.1468
     15 C          -7.5264   59.2698   76.2324 C.ar    1  UNL1        0.0431
     16 C          -8.3259   58.4752   77.0875 C.ar    1  UNL1        0.0045
     17 C          -7.7033   57.4021   77.7327 C.ar    1  UNL1        0.0561
     18 N          -6.4234   57.0501   77.5015 N.ar    1  UNL1       -0.2499
     19 C          -5.6747   57.7623   76.6670 C.ar    1  UNL1        0.0829
     20 C          -4.3694   57.3440   76.4651 C.ar    1  UNL1        0.0305
     21 C          -3.5049   58.0519   75.6392 C.ar    1  UNL1        0.0592
     22 CL         -1.8917   57.4991   75.4117 Cl      1  UNL1       -0.0822
     23 C          -3.9397   59.2052   75.0063 C.ar    1  UNL1        0.0115
     24 C          -5.2578   59.6255   75.1921 C.ar    1  UNL1        0.0036
     25 C          -6.1603   58.9002   76.0130 C.ar    1  UNL1        0.0305
     26 C          -8.4199   56.5084   78.7106 C.3     1  UNL1        0.0455
     27 C          -9.6779   57.1433   79.2802 C.3     1  UNL1        0.0066
     28 C         -10.5323   57.6412   78.1282 C.3     1  UNL1        0.0052
     29 C          -9.7931   58.7318   77.3484 C.3     1  UNL1        0.0288
     30 C          -0.4361   63.0033   76.2400 C.3     1  UNL1        0.1062
     31 C          -0.3730   61.6770   77.0079 C.3     1  UNL1        0.0993
     32 C           1.1865   61.7524   78.9981 C.2     1  UNL1        0.2471
     33 O           0.3515   62.3115   79.7257 O.2     1  UNL1       -0.2701
     34 N           0.9160   61.4216   77.6842 N.am    1  UNL1       -0.3003
     35 H           1.5925   60.8842   77.1492 H       1  UNL1        0.1498
     36 C           2.5955   60.1416   80.3788 C.ar    1  UNL1        0.0527
     37 C           3.8746   59.6642   80.7212 C.ar    1  UNL1        0.0148
     38 C           5.0376   60.3350   80.3337 C.ar    1  UNL1        0.0013
     39 C           4.9414   61.5288   79.6304 C.ar    1  UNL1        0.0002
     40 C           3.6844   62.0290   79.2747 C.ar    1  UNL1        0.0058
     41 C           2.5106   61.3097   79.5724 C.ar    1  UNL1        0.0667
     42 N           1.4347   59.4198   80.7595 N.pl3   1  UNL1       -0.3127
     43 H           1.2526   59.5148   81.7676 H       1  UNL1        0.1522
     44 C          -2.7358   57.1054   79.2583 C.3     1  UNL1        0.0307
     45 C          -1.2429   57.1578   79.4369 C.ar    1  UNL1       -0.0246
     46 C          -0.4731   56.0663   79.0116 C.ar    1  UNL1       -0.0045
     47 C           0.9043   56.0558   79.2125 C.ar    1  UNL1        0.0009
     48 C           1.5336   57.1448   79.8204 C.ar    1  UNL1        0.0143
     49 C           0.8033   58.2806   80.2079 C.ar    1  UNL1        0.0440
     50 C          -0.6049   58.2761   80.0356 C.ar    1  UNL1       -0.0124
     51 C          -1.4483   59.4501   80.4809 C.3     1  UNL1        0.0320
@<TRIPOS>BOND
     1    44    45    1
     2    45    46   ar
     3    45    50   ar
     4    46    47   ar
     5    47    48   ar
     6    48    49   ar
     7    49    42    1
     8    49    50   ar
     9    42    36    1
    10    42    43    1
    11    36    37   ar
    12    36    41   ar
    13    37    38   ar
    14    38    39   ar
    15    39    40   ar
    16    40    41   ar
    17    41    32    1
    18    32    33    2
    19    32    34   am
    20    34    31    1
    21    34    35    1
    22    31    30    1
    23    30     1    1
    24     1     2    2
    25     1     3   am
    26     3     5    1
    27     3     4    1
    28     5     6    1
    29     6     7    1
    30     7     8    1
    31     8     9    1
    32     9    10    1
    33    10    11    1
    34    11    12    1
    35    12    13    1
    36    13    15    1
    37    13    14    1
    38    15    16   ar
    39    15    25   ar
    40    16    17   ar
    41    16    29    1
    42    17    18   ar
    43    17    26    1
    44    18    19   ar
    45    19    20   ar
    46    19    25   ar
    47    20    21   ar
    48    21    22    1
    49    21    23   ar
    50    23    24   ar
    51    24    25   ar
    52    26    27    1
    53    27    28    1
    54    28    29    1
    55    50    51    1



#	Name:			CHEMBL325142
#	Creating user name:	trannguyen
#	Creation time:		Thu Dec  1 16:45:11 2022


#	Modifying user name:	trannguyen
#	Modification time:	Thu Dec  1 16:45:11 2022

@<TRIPOS>MOLECULE
CHEMBL325142
 19 20 0 0 0
SMALL
GASTEIGER

@<TRIPOS>ATOM
      1 C           5.3900   69.1556   62.9239 C.3     1  UNL1        0.0518
      2 C           4.9554   69.3464   64.3503 C.ar    1  UNL1        0.0578
      3 N           5.9131   69.8418   65.1724 N.ar    1  UNL1       -0.2498
      4 C           5.6076   70.1094   66.4459 C.ar    1  UNL1        0.0842
      5 C           6.6036   70.6580   67.2468 C.ar    1  UNL1        0.0193
      6 C           6.3854   70.9833   68.5863 C.ar    1  UNL1        0.0039
      7 C           5.1393   70.7503   69.1433 C.ar    1  UNL1        0.0298
      8 C           4.1354   70.1985   68.3524 C.ar    1  UNL1        0.1427
      9 F           2.9497   69.9592   68.9394 F       1  UNL1       -0.2041
     10 C           4.3345   69.8669   66.9906 C.ar    1  UNL1        0.0577
     11 C           3.3489   69.2868   66.1390 C.ar    1  UNL1        0.0435
     12 N           2.0121   69.1607   66.5975 N.pl3   1  UNL1       -0.3571
     13 C           3.6565   69.0455   64.7814 C.ar    1  UNL1        0.0200
     14 H           1.9413   69.1781   67.6155 H       1  UNL1        0.1423
     15 H           1.5005   68.3779   66.2092 H       1  UNL1        0.1423
     16 C           2.6215   68.5405   63.8052 C.3     1  UNL1        0.0946
     17 N           2.1412   67.2141   64.1733 N.3     1  UNL1       -0.3174
     18 H           2.9524   66.5987   64.2649 H       1  UNL1        0.1192
     19 H           1.5804   66.8337   63.4143 H       1  UNL1        0.1192
@<TRIPOS>BOND
     1     1     2    1
     2     2     3   ar
     3     2    13   ar
     4     3     4   ar
     5     4     5   ar
     6     4    10   ar
     7     5     6   ar
     8     6     7   ar
     9     7     8   ar
    10     8     9    1
    11     8    10   ar
    12    10    11   ar
    13    11    12    1
    14    11    13   ar
    15    12    14    1
    16    12    15    1
    17    13    16    1
    18    16    17    1
    19    17    18    1
    20    17    19    1



#	Name:			CHEMBL3288081
#	Creating user name:	trannguyen
#	Creation time:		Thu Dec  1 16:45:11 2022


#	Modifying user name:	trannguyen
#	Modification time:	Thu Dec  1 16:45:11 2022

@<TRIPOS>MOLECULE
CHEMBL3288081
 42 46 0 0 0
SMALL
GASTEIGER

@<TRIPOS>ATOM
      1 C          -5.9524   59.6643   66.4230 C.3     1  UNL1        0.0207
      2 C          -6.8669   59.0093   65.3450 C.3     1  UNL1        0.0042
      3 C          -5.9517   58.5355   64.1845 C.3     1  UNL1        0.0027
      4 C          -4.5060   58.8764   64.6152 C.3     1  UNL1        0.0276
      5 C          -4.1346   60.2849   64.0581 C.3     1  UNL1        0.0025
      6 C          -3.4325   57.8558   64.1559 C.3     1  UNL1        0.1431
      7 C          -2.0864   58.1958   64.8345 C.3     1  UNL1        0.0320
      8 C          -2.1118   58.3270   66.3940 C.3     1  UNL1        0.0024
      9 C          -2.0981   56.8430   66.8892 C.3     1  UNL1        0.0001
     10 C          -3.3864   59.0873   66.9153 C.3     1  UNL1        0.0005
     11 C          -3.5292   58.8725   68.4269 C.3     1  UNL1        0.0000
     12 C          -2.3374   59.4804   69.1646 C.3     1  UNL1        0.0000
     13 C          -0.9307   59.1861   68.5625 C.3     1  UNL1        0.0000
     14 C           0.2321   60.0095   69.2718 C.3     1  UNL1        0.0002
     15 C           0.0347   61.5268   69.0337 C.3     1  UNL1        0.0000
     16 C           0.1725   59.7413   70.8121 C.3     1  UNL1        0.0026
     17 C           1.5227   59.7305   71.5439 C.3     1  UNL1        0.0320
     18 C           2.5950   60.6365   70.9332 C.3     1  UNL1        0.1431
     19 C           2.8825   60.1961   69.4401 C.3     1  UNL1        0.0273
     20 C           4.0279   59.1440   69.5053 C.3     1  UNL1        0.0025
     21 C           3.4450   61.3626   68.5962 C.3     1  UNL1        0.0025
     22 C           1.6212   59.4786   68.7725 C.3     1  UNL1        0.0023
     23 C           1.7140   59.3125   67.2362 C.3     1  UNL1        0.0001
     24 C           0.5174   58.5635   66.6097 C.3     1  UNL1        0.0000
     25 C          -0.8610   59.1778   66.9742 C.3     1  UNL1        0.0001
     26 C          -0.9028   60.6160   66.3504 C.3     1  UNL1        0.0000
     27 C          -4.6694   58.8086   66.1502 C.3     1  UNL1        0.0061
     28 C          -5.3830   61.9794   67.3829 C.2     1  UNL1       -0.0067
     29 C          -5.8881   61.2135   66.3927 C.2     1  UNL1       -0.0156
     30 C          -6.4088   61.9576   65.1809 C.3     1  UNL1        0.1594
     31 O          -7.6855   61.4639   64.7948 O.3     1  UNL1       -0.3775
     32 H          -8.3402   62.0108   65.2594 H       1  UNL1        0.2109
     33 O          -3.3576   57.9574   62.7333 O.3     1  UNL1       -0.2438
     34 S          -4.6074   57.6194   61.7650 S.3     1  UNL1       -0.0002
     35 O          -4.1453   57.7082   60.3848 O.2     1  UNL1       -0.3452
     36 O          -5.0896   56.3104   62.1962 O.2     1  UNL1       -0.3452
     37 O          -5.6294   58.6032   62.1256 O.3     1  UNL1       -0.2682
     38 O           2.2369   62.0126   71.0293 O.3     1  UNL1       -0.2438
     39 S           3.3805   63.1518   71.2214 S.3     1  UNL1       -0.0002
     40 O           2.8466   64.3320   70.5398 O.2     1  UNL1       -0.3452
     41 O           3.3788   63.4692   72.6537 O.2     1  UNL1       -0.3452
     42 O           4.6153   62.6070   70.6894 O.3     1  UNL1       -0.2682
@<TRIPOS>BOND
     1    28    29    2
     2    29    30    1
     3    30    31    1
     4    31    32    1
     5     1     2    1
     6     1    27    1
     7     1    29    1
     8     2     3    1
     9     3     4    1
    10     4     6    1
    11     4    27    1
    12     4     5    1
    13     6     7    1
    14     6    33    1
    15    33    34    1
    16    34    35    2
    17    34    36    2
    18    34    37    1
    19     7     8    1
    20     8    10    1
    21     8    25    1
    22     8     9    1
    23    10    11    1
    24    10    27    1
    25    11    12    1
    26    12    13    1
    27    13    14    1
    28    13    25    1
    29    14    16    1
    30    14    22    1
    31    14    15    1
    32    16    17    1
    33    17    18    1
    34    18    19    1
    35    18    38    1
    36    38    39    1
    37    39    40    2
    38    39    41    2
    39    39    42    1
    40    19    22    1
    41    19    20    1
    42    19    21    1
    43    22    23    1
    44    23    24    1
    45    24    25    1
    46    25    26    1



#	Name:			CHEMBL3288092
#	Creating user name:	trannguyen
#	Creation time:		Thu Dec  1 16:45:11 2022


#	Modifying user name:	trannguyen
#	Modification time:	Thu Dec  1 16:45:11 2022

@<TRIPOS>MOLECULE
CHEMBL3288092
 52 56 0 0 0
SMALL
GASTEIGER

@<TRIPOS>ATOM
      1 C           2.3520   68.7566   62.6217 C.3     1  UNL1        0.0184
      2 C           3.2443   69.5515   61.5582 C.3     1  UNL1        0.0041
      3 C           4.7194   69.0752   61.7421 C.3     1  UNL1        0.0038
      4 C           4.6983   68.5420   63.1794 C.3     1  UNL1        0.0372
      5 C           4.5309   69.7803   64.0038 C.3     1  UNL1        0.0036
      6 C           5.9078   67.7431   63.7983 C.3     1  UNL1        0.1686
      7 C           5.6660   66.1969   63.6008 C.3     1  UNL1        0.0436
      8 C           4.2671   65.5883   64.1376 C.3     1  UNL1        0.0035
      9 C           3.6067   64.8031   62.9433 C.3     1  UNL1        0.0001
     10 C           3.3703   66.8526   64.4726 C.3     1  UNL1        0.0005
     11 C           2.0847   66.5055   65.1908 C.3     1  UNL1        0.0000
     12 C           2.3903   65.8032   66.5105 C.3     1  UNL1        0.0000
     13 C           3.0613   64.4402   66.2589 C.3     1  UNL1        0.0000
     14 C           3.2239   63.5343   67.5532 C.3     1  UNL1        0.0002
     15 C           4.0802   64.2607   68.6334 C.3     1  UNL1        0.0000
     16 C           1.8469   63.3008   68.2314 C.3     1  UNL1        0.0037
     17 C           1.9616   62.3355   69.4331 C.3     1  UNL1        0.0436
     18 C           2.7004   60.9641   69.2045 C.3     1  UNL1        0.1686
     19 C           3.9686   61.0587   68.2730 C.3     1  UNL1        0.0369
     20 C           4.1894   59.6371   67.6719 C.3     1  UNL1        0.0036
     21 C           5.2617   61.3891   69.0497 C.3     1  UNL1        0.0036
     22 C           3.6555   62.0746   67.1032 C.3     1  UNL1        0.0034
     23 C           4.6320   61.9570   65.9149 C.3     1  UNL1        0.0001
     24 C           4.4779   63.0221   64.8346 C.3     1  UNL1        0.0000
     25 C           4.3741   64.4989   65.3612 C.3     1  UNL1        0.0001
     26 C           5.6705   64.7266   66.1615 C.3     1  UNL1        0.0000
     27 C           3.3840   67.7475   63.1825 C.3     1  UNL1        0.0071
     28 C           0.3474   67.2324   62.5794 C.2     1  UNL1       -0.0091
     29 C           1.1022   68.1732   61.9912 C.2     1  UNL1       -0.0442
     30 C           0.6943   68.6674   60.6444 C.3     1  UNL1        0.0263
     31 O           6.0177   68.0308   65.2803 O.3     1  UNL1       -0.4523
     32 C           5.6275   69.2429   65.8370 C.2     1  UNL1        0.3169
     33 O           4.4809   69.5166   66.1611 O.2     1  UNL1       -0.2501
     34 C           6.8315   70.1595   66.1519 C.3     1  UNL1        0.1096
     35 C           7.1885   70.5134   67.6227 C.3     1  UNL1        0.0122
     36 C           6.2575   71.3020   68.5620 C.3     1  UNL1        0.0122
     37 C           5.4016   70.6608   69.6450 C.3     1  UNL1        0.1094
     38 C           3.9684   70.7914   69.3217 C.2     1  UNL1        0.3138
     39 O           3.1266   69.8266   69.2763 O.2     1  UNL1       -0.2503
     40 O           3.5837   71.9769   68.9341 O.3     1  UNL1       -0.4802
     41 H           2.7767   71.8470   68.3933 H       1  UNL1        0.2951
     42 O           2.9970   60.3770   70.5450 O.3     1  UNL1       -0.4523
     43 C           2.1097   59.8882   71.4917 C.2     1  UNL1        0.3169
     44 O           0.9076   60.1000   71.5616 O.2     1  UNL1       -0.2501
     45 C           2.9182   59.0897   72.5411 C.3     1  UNL1        0.1096
     46 C           2.9572   59.6120   74.0042 C.3     1  UNL1        0.0122
     47 C           1.7494   59.1893   74.9118 C.3     1  UNL1        0.0122
     48 C           1.8351   59.7281   76.3392 C.3     1  UNL1        0.1094
     49 C           1.5005   61.1972   76.5913 C.2     1  UNL1        0.3138
     50 O           0.6562   61.7826   75.9205 O.2     1  UNL1       -0.2503
     51 O           2.1994   61.8794   77.5181 O.3     1  UNL1       -0.4802
     52 H           2.8759   61.4532   78.0724 H       1  UNL1        0.2951
@<TRIPOS>BOND
     1    28    29    2
     2    29    30    1
     3     1     2    1
     4     1    27    1
     5     1    29    1
     6     2     3    1
     7     3     4    1
     8     4     6    1
     9     4    27    1
    10     4     5    1
    11     6     7    1
    12     6    31    1
    13    31    32    1
    14    32    33    2
    15    32    34    1
    16    34    35    1
    17    35    36    1
    18    36    37    1
    19    37    38    1
    20    38    39    2
    21    38    40    1
    22    40    41    1
    23     7     8    1
    24     8    10    1
    25     8    25    1
    26     8     9    1
    27    10    11    1
    28    10    27    1
    29    11    12    1
    30    12    13    1
    31    13    14    1
    32    13    25    1
    33    14    16    1
    34    14    22    1
    35    14    15    1
    36    16    17    1
    37    17    18    1
    38    18    19    1
    39    18    42    1
    40    42    43    1
    41    43    44    2
    42    43    45    1
    43    45    46    1
    44    46    47    1
    45    47    48    1
    46    48    49    1
    47    49    50    2
    48    49    51    1
    49    51    52    1
    50    19    22    1
    51    19    20    1
    52    19    21    1
    53    22    23    1
    54    23    24    1
    55    24    25    1
    56    25    26    1



#	Name:			CHEMBL338975
#	Creating user name:	trannguyen
#	Creation time:		Thu Dec  1 16:45:11 2022


#	Modifying user name:	trannguyen
#	Modification time:	Thu Dec  1 16:45:11 2022

@<TRIPOS>MOLECULE
CHEMBL338975
 21 23 0 0 0
SMALL
GASTEIGER

@<TRIPOS>ATOM
      1 C          -0.3270   61.8385   76.9773 C.ar    1  UNL1        0.1498
      2 C           0.9724   61.3794   76.7207 C.ar    1  UNL1        0.0389
      3 C           1.2237   60.0056   76.5998 C.ar    1  UNL1        0.0174
      4 C           0.1740   59.1049   76.7323 C.ar    1  UNL1        0.0450
      5 C          -1.1150   59.5880   76.9504 C.ar    1  UNL1       -0.0035
      6 C          -1.3897   60.9447   77.0617 C.ar    1  UNL1        0.0347
      7 C          -2.0704   58.4473   77.0721 C.3     1  UNL1        0.0525
      8 C          -3.1675   58.5091   76.0046 C.3     1  UNL1        0.0075
      9 C          -2.6472   58.2912   78.4785 C.3     1  UNL1        0.0244
     10 C          -2.6886   56.7871   78.6546 C.3     1  UNL1        0.0740
     11 N          -1.4200   56.3425   78.0770 N.3     1  UNL1       -0.2567
     12 C          -1.4501   54.9252   77.7432 C.3     1  UNL1        0.0909
     13 C          -1.1347   57.1970   76.9021 C.3     1  UNL1        0.1380
     14 N           0.2346   57.7033   76.6302 N.pl3   1  UNL1       -0.2945
     15 C           1.3462   57.0733   77.3252 C.3     1  UNL1        0.1134
     16 O          -0.4971   63.2366   77.0744 O.3     1  UNL1       -0.4103
     17 C          -2.6933   64.8248   77.5768 C.3     1  UNL1        0.1140
     18 N          -2.0376   64.7655   76.2993 N.am    1  UNL1       -0.2686
     19 C          -0.9720   63.9684   75.9879 C.2     1  UNL1        0.4062
     20 O          -0.5361   63.9424   74.8424 O.2     1  UNL1       -0.2260
     21 H          -2.3967   65.3013   75.5206 H       1  UNL1        0.1528
@<TRIPOS>BOND
     1    17    18    1
     2    18    19   am
     3    18    21    1
     4    19    20    2
     5    19    16    1
     6    16     1    1
     7     1     2   ar
     8     1     6   ar
     9     2     3   ar
    10     3     4   ar
    11     4     5   ar
    12     4    14    1
    13     5     6   ar
    14     5     7    1
    15     7     8    1
    16     7     9    1
    17     7    13    1
    18     9    10    1
    19    10    11    1
    20    11    12    1
    21    11    13    1
    22    13    14    1
    23    14    15    1



#	Name:			CHEMBL357551
#	Creating user name:	trannguyen
#	Creation time:		Thu Dec  1 16:45:11 2022


#	Modifying user name:	trannguyen
#	Modification time:	Thu Dec  1 16:45:11 2022

@<TRIPOS>MOLECULE
CHEMBL357551
 34 37 0 0 0
SMALL
GASTEIGER

@<TRIPOS>ATOM
      1 C          -1.9177   54.4089   75.2590 C.3     1  UNL1        0.0017
      2 C          -1.0420   55.5510   75.7836 C.3     1  UNL1        0.0212
      3 C          -0.0035   55.0806   76.8011 C.3     1  UNL1        0.0894
      4 C           1.3239   57.0798   77.3670 C.2     1  UNL1        0.2269
      5 O           1.9150   57.0845   76.2903 O.2     1  UNL1       -0.2747
      6 N           0.3742   56.1387   77.7087 N.am    1  UNL1       -0.3041
      7 H          -0.1760   56.2691   78.5485 H       1  UNL1        0.1494
      8 C           1.5718   58.1215   78.4388 C.3     1  UNL1        0.1113
      9 C          -0.2727   61.9956   77.6324 C.ar    1  UNL1        0.0479
     10 C           0.5100   61.3416   76.6677 C.ar    1  UNL1        0.0142
     11 C           1.1084   60.0998   76.9084 C.ar    1  UNL1       -0.0025
     12 C           0.9543   59.4625   78.1412 C.ar    1  UNL1       -0.0130
     13 C           0.1442   60.0713   79.0994 C.ar    1  UNL1       -0.0025
     14 C          -0.4573   61.3085   78.8436 C.ar    1  UNL1        0.0142
     15 C          -0.9086   63.7140   75.9891 C.3     1  UNL1        0.1122
     16 N          -0.8691   63.2342   77.3694 N.pl3   1  UNL1       -0.3041
     17 C          -2.0175   63.6234   78.1903 C.3     1  UNL1        0.1122
     18 C          -1.5391   53.0599   75.8678 C.3     1  UNL1        0.0001
     19 C          -2.7621   52.2320   76.2553 C.3     1  UNL1        0.0000
     20 C          -3.7617   53.1116   77.0041 C.3     1  UNL1        0.0014
     21 C          -3.2471   53.5192   78.3827 C.3     1  UNL1        0.0171
     22 C          -3.5405   55.0005   78.6346 C.3     1  UNL1        0.0685
     23 N          -4.5319   55.4785   77.6749 N.3     1  UNL1       -0.2996
     24 H          -5.4661   55.2953   78.0415 H       1  UNL1        0.1232
     25 C          -4.4244   56.8991   77.3037 C.3     1  UNL1        0.0419
     26 C          -3.1642   57.4546   78.0231 C.3     1  UNL1        0.0144
     27 C          -2.9588   58.9445   77.6988 C.3     1  UNL1        0.0013
     28 C          -2.7880   59.1136   76.1811 C.3     1  UNL1        0.0001
     29 C          -4.0359   58.5941   75.4517 C.3     1  UNL1        0.0013
     30 C          -5.2690   59.3812   75.9261 C.3     1  UNL1        0.0001
     31 C          -5.4467   59.2203   77.4453 C.3     1  UNL1        0.0013
     32 C          -4.1903   59.7376   78.1619 C.3     1  UNL1        0.0001
     33 C          -5.6455   57.7298   77.7759 C.3     1  UNL1        0.0144
     34 C          -4.2315   57.1030   75.7782 C.3     1  UNL1        0.0144
@<TRIPOS>BOND
     1    15    16    1
     2    16    17    1
     3    16     9    1
     4     9    10   ar
     5     9    14   ar
     6    10    11   ar
     7    11    12   ar
     8    12     8    1
     9    12    13   ar
    10     8     4    1
    11     4     5    2
    12     4     6   am
    13     6     3    1
    14     6     7    1
    15     3     2    1
    16     2     1    1
    17     1    18    1
    18    18    19    1
    19    19    20    1
    20    20    21    1
    21    21    22    1
    22    22    23    1
    23    23    25    1
    24    23    24    1
    25    25    26    1
    26    25    33    1
    27    25    34    1
    28    26    27    1
    29    27    28    1
    30    27    32    1
    31    28    29    1
    32    29    30    1
    33    29    34    1
    34    30    31    1
    35    31    32    1
    36    31    33    1
    37    13    14   ar



#	Name:			CHEMBL3604339
#	Creating user name:	trannguyen
#	Creation time:		Thu Dec  1 16:45:11 2022


#	Modifying user name:	trannguyen
#	Modification time:	Thu Dec  1 16:45:11 2022

@<TRIPOS>MOLECULE
CHEMBL3604339
 22 25 0 0 0
SMALL
GASTEIGER

@<TRIPOS>ATOM
      1 C           3.5658   64.4187   64.9689 C.ar    1  UNL1        0.1721
      2 C           4.3244   63.9684   63.8846 C.ar    1  UNL1        0.0397
      3 C           4.7113   64.8377   62.8509 C.ar    1  UNL1        0.0001
      4 C           4.3500   66.1935   62.8679 C.ar    1  UNL1       -0.0068
      5 C           3.5909   66.6317   63.9499 C.ar    1  UNL1        0.0187
      6 C           3.1992   65.7558   64.9706 C.ar    1  UNL1        0.1682
      7 O           2.4499   66.3809   65.9406 O.3     1  UNL1       -0.4757
      8 C           2.0266   67.6120   65.3063 C.3     1  UNL1        0.1761
      9 C           1.7808   68.6767   66.3706 C.3     1  UNL1        0.0779
     10 C           3.0697   69.0928   67.0765 C.3     1  UNL1        0.1358
     11 O           2.8327   70.3053   67.7840 O.3     1  UNL1       -0.3799
     12 C           4.2039   69.3220   66.1282 C.2     1  UNL1       -0.0015
     13 C           4.2208   68.8575   64.8690 C.2     1  UNL1       -0.0213
     14 C           3.1073   68.0166   64.2575 C.3     1  UNL1        0.0780
     15 C           2.4347   68.7310   63.0706 C.3     1  UNL1        0.0288
     16 C           3.3337   69.0488   61.8740 C.3     1  UNL1        0.0696
     17 N           3.7635   67.8696   61.1250 N.3     1  UNL1       -0.2937
     18 C           4.8332   67.1226   61.7878 C.3     1  UNL1        0.0954
     19 H           2.7146   71.0097   67.1247 H       1  UNL1        0.2108
     20 H           4.1191   68.1816   60.2213 H       1  UNL1        0.1236
     21 C           4.0480   63.4382   67.0829 C.3     1  UNL1        0.2526
     22 O           3.2771   63.4539   65.8897 O.3     1  UNL1       -0.4684
@<TRIPOS>BOND
     1    21    22    1
     2    22     1    1
     3     1     2   ar
     4     1     6   ar
     5     2     3   ar
     6     3     4   ar
     7     4     5   ar
     8     4    18    1
     9     5     6   ar
    10     5    14    1
    11     6     7    1
    12     7     8    1
    13     8     9    1
    14     8    14    1
    15     9    10    1
    16    10    12    1
    17    10    11    1
    18    11    19    1
    19    12    13    2
    20    14    13    1
    21    14    15    1
    22    15    16    1
    23    16    17    1
    24    17    18    1
    25    17    20    1



#	Name:			CHEMBL3604340
#	Creating user name:	trannguyen
#	Creation time:		Thu Dec  1 16:45:11 2022


#	Modifying user name:	trannguyen
#	Modification time:	Thu Dec  1 16:45:11 2022

@<TRIPOS>MOLECULE
CHEMBL3604340
 29 33 0 0 0
SMALL
GASTEIGER

@<TRIPOS>ATOM
      1 C           0.5534   58.8157   76.2966 C.ar    1  UNL1        0.1721
      2 C           0.5244   59.9935   77.0470 C.ar    1  UNL1        0.0397
      3 C          -0.6631   60.4398   77.6601 C.ar    1  UNL1        0.0001
      4 C          -1.8614   59.7132   77.5485 C.ar    1  UNL1       -0.0066
      5 C          -1.8072   58.5364   76.8112 C.ar    1  UNL1        0.0187
      6 C          -0.6274   58.1008   76.2009 C.ar    1  UNL1        0.1682
      7 O          -0.7817   56.9004   75.5494 O.3     1  UNL1       -0.4757
      8 C          -2.2109   56.7910   75.3763 C.3     1  UNL1        0.1761
      9 C          -2.6073   55.3212   75.2840 C.3     1  UNL1        0.0779
     10 C          -2.4172   54.5840   76.6080 C.3     1  UNL1        0.1358
     11 O          -3.1257   53.3499   76.5452 O.3     1  UNL1       -0.3799
     12 C          -2.9308   55.3502   77.7819 C.2     1  UNL1       -0.0015
     13 C          -3.1622   56.6762   77.7549 C.2     1  UNL1       -0.0213
     14 C          -2.9026   57.5554   76.5433 C.3     1  UNL1        0.0780
     15 C          -4.1684   58.2385   76.0204 C.3     1  UNL1        0.0290
     16 C          -4.9435   59.0841   77.0313 C.3     1  UNL1        0.0732
     17 N          -4.3025   60.3553   77.4152 N.3     1  UNL1       -0.2677
     18 C          -3.1124   60.1510   78.2766 C.3     1  UNL1        0.0990
     19 H          -4.0748   53.5584   76.5602 H       1  UNL1        0.2108
     20 C           2.1978   59.3216   74.6765 C.3     1  UNL1        0.2526
     21 O           1.7617   58.4916   75.7492 O.3     1  UNL1       -0.4684
     22 C          -5.2739   61.2136   78.1515 C.3     1  UNL1        0.0899
     23 C          -6.7341   60.6774   78.1833 C.3     1  UNL1        0.0898
     24 N          -7.7692   61.6902   77.8939 N.3     1  UNL1       -0.2672
     25 C          -7.3894   62.6562   76.8421 C.3     1  UNL1        0.1047
     26 C          -7.3920   62.0703   75.4219 C.3     1  UNL1        0.1595
     27 O          -8.6736   61.5197   75.0957 O.3     1  UNL1       -0.3508
     28 C          -9.0405   60.5045   76.0373 C.3     1  UNL1        0.1595
     29 C          -9.0409   61.0443   77.4801 C.3     1  UNL1        0.1047
@<TRIPOS>BOND
     1    20    21    1
     2    21     1    1
     3     1     2   ar
     4     1     6   ar
     5     2     3   ar
     6     3     4   ar
     7     4     5   ar
     8     4    18    1
     9     5     6   ar
    10     5    14    1
    11     6     7    1
    12     7     8    1
    13     8     9    1
    14     8    14    1
    15     9    10    1
    16    10    12    1
    17    10    11    1
    18    11    19    1
    19    12    13    2
    20    14    13    1
    21    14    15    1
    22    15    16    1
    23    16    17    1
    24    17    22    1
    25    17    18    1
    26    22    23    1
    27    23    24    1
    28    24    25    1
    29    24    29    1
    30    25    26    1
    31    26    27    1
    32    27    28    1
    33    28    29    1



#	Name:			CHEMBL3604341
#	Creating user name:	trannguyen
#	Creation time:		Thu Dec  1 16:45:11 2022


#	Modifying user name:	trannguyen
#	Modification time:	Thu Dec  1 16:45:11 2022

@<TRIPOS>MOLECULE
CHEMBL3604341
 26 29 0 0 0
SMALL
GASTEIGER

@<TRIPOS>ATOM
      1 C           2.0548   59.8546   77.5521 C.ar    1  UNL1        0.1721
      2 C           1.2884   60.9872   77.2643 C.ar    1  UNL1        0.0397
      3 C          -0.0824   60.8860   76.9562 C.ar    1  UNL1        0.0001
      4 C          -0.7364   59.6425   76.9253 C.ar    1  UNL1       -0.0066
      5 C           0.0417   58.5255   77.2089 C.ar    1  UNL1        0.0187
      6 C           1.4058   58.6328   77.5068 C.ar    1  UNL1        0.1682
      7 O           1.9862   57.4113   77.7586 O.3     1  UNL1       -0.4757
      8 C           1.0491   56.4678   77.1936 C.3     1  UNL1        0.1761
      9 C           1.1809   55.1303   77.9121 C.3     1  UNL1        0.0779
     10 C           0.7324   55.2128   79.3699 C.3     1  UNL1        0.1358
     11 O           0.5345   53.8916   79.8615 O.3     1  UNL1       -0.3799
     12 C          -0.5469   55.9694   79.5447 C.2     1  UNL1       -0.0015
     13 C          -1.0515   56.7927   78.6178 C.2     1  UNL1       -0.0213
     14 C          -0.3744   57.0923   77.2876 C.3     1  UNL1        0.0780
     15 C          -1.2091   56.6463   76.0827 C.3     1  UNL1        0.0290
     16 C          -2.6136   57.2443   75.9781 C.3     1  UNL1        0.0734
     17 N          -2.6602   58.6710   75.5992 N.3     1  UNL1       -0.2652
     18 C          -2.2294   59.5599   76.7007 C.3     1  UNL1        0.0992
     19 H          -0.2498   53.5304   79.4150 H       1  UNL1        0.2108
     20 C           3.7164   60.2491   79.2054 C.3     1  UNL1        0.2526
     21 O           3.3677   60.1015   77.8338 O.3     1  UNL1       -0.4684
     22 C          -4.0474   59.0390   75.2198 C.3     1  UNL1        0.0985
     23 C          -5.0555   58.5811   76.2418 C.2     1  UNL1       -0.0172
     24 C          -6.2513   59.1259   76.5485 C.2     1  UNL1       -0.0465
     25 C          -6.8712   60.3178   75.8726 C.3     1  UNL1        0.0261
     26 C          -7.0735   58.5650   77.6807 C.3     1  UNL1        0.0261
@<TRIPOS>BOND
     1    20    21    1
     2    21     1    1
     3     1     2   ar
     4     1     6   ar
     5     2     3   ar
     6     3     4   ar
     7     4     5   ar
     8     4    18    1
     9     5     6   ar
    10     5    14    1
    11     6     7    1
    12     7     8    1
    13     8     9    1
    14     8    14    1
    15     9    10    1
    16    10    12    1
    17    10    11    1
    18    11    19    1
    19    12    13    2
    20    14    13    1
    21    14    15    1
    22    15    16    1
    23    16    17    1
    24    17    22    1
    25    17    18    1
    26    22    23    1
    27    23    24    2
    28    24    25    1
    29    24    26    1



#	Name:			CHEMBL3604344
#	Creating user name:	trannguyen
#	Creation time:		Thu Dec  1 16:45:11 2022


#	Modifying user name:	trannguyen
#	Modification time:	Thu Dec  1 16:45:11 2022

@<TRIPOS>MOLECULE
CHEMBL3604344
 33 37 0 0 0
SMALL
GASTEIGER

@<TRIPOS>ATOM
      1 C           4.5811   68.0550   62.5759 C.ar    1  UNL1        0.1721
      2 C           4.8077   69.3059   63.1554 C.ar    1  UNL1        0.0397
      3 C           4.4006   69.5742   64.4753 C.ar    1  UNL1        0.0001
      4 C           3.7545   68.5938   65.2478 C.ar    1  UNL1       -0.0066
      5 C           3.5015   67.3724   64.6461 C.ar    1  UNL1        0.0187
      6 C           3.9161   67.1148   63.3453 C.ar    1  UNL1        0.1682
      7 O           3.6119   65.8387   62.9477 O.3     1  UNL1       -0.4757
      8 C           2.5854   65.4180   63.8707 C.3     1  UNL1        0.1761
      9 C           2.6468   63.8955   63.9712 C.3     1  UNL1        0.0779
     10 C           3.9285   63.4170   64.6536 C.3     1  UNL1        0.1358
     11 O           5.0397   63.5005   63.7711 O.3     1  UNL1       -0.3799
     12 C           4.2594   64.2069   65.8781 C.2     1  UNL1       -0.0015
     13 C           3.7406   65.4144   66.1524 C.2     1  UNL1       -0.0213
     14 C           2.8128   66.1723   65.2167 C.3     1  UNL1        0.0780
     15 C           1.4492   66.5233   65.8396 C.3     1  UNL1        0.0290
     16 C           1.4531   67.4091   67.0939 C.3     1  UNL1        0.0732
     17 N           1.9303   68.8000   66.9089 N.3     1  UNL1       -0.2685
     18 C           3.3844   68.8365   66.6847 C.3     1  UNL1        0.0990
     19 H           5.0599   64.4139   63.4260 H       1  UNL1        0.2108
     20 C           4.0481   68.0674   60.2710 C.3     1  UNL1        0.2526
     21 O           5.0275   67.8950   61.2935 O.3     1  UNL1       -0.4684
     22 C           1.5228   69.5975   68.0942 C.3     1  UNL1        0.0800
     23 C           2.5898   69.7494   69.1941 C.3     1  UNL1        0.0779
     24 C           3.4404   68.5051   69.4109 C.3     1  UNL1        0.0096
     25 C           3.4594   70.9637   68.8839 C.2     1  UNL1        0.1740
     26 O           2.9765   72.0503   68.5083 O.2     1  UNL1       -0.2913
     27 C           4.9298   70.8568   69.1081 C.ar    1  UNL1        0.0347
     28 C           5.8022   71.0745   68.0313 C.ar    1  UNL1        0.0025
     29 C           7.1880   70.9921   68.2322 C.ar    1  UNL1       -0.0042
     30 C           7.7059   70.7068   69.5007 C.ar    1  UNL1       -0.0218
     31 C           9.1840   70.6101   69.7372 C.3     1  UNL1        0.0310
     32 C           6.8270   70.4985   70.5666 C.ar    1  UNL1       -0.0042
     33 C           5.4494   70.5656   70.3646 C.ar    1  UNL1        0.0025
@<TRIPOS>BOND
     1    20    21    1
     2    21     1    1
     3     1     2   ar
     4     1     6   ar
     5     2     3   ar
     6     3     4   ar
     7     4     5   ar
     8     4    18    1
     9     5     6   ar
    10     5    14    1
    11     6     7    1
    12     7     8    1
    13     8     9    1
    14     8    14    1
    15     9    10    1
    16    10    11    1
    17    10    12    1
    18    11    19    1
    19    12    13    2
    20    14    13    1
    21    14    15    1
    22    15    16    1
    23    16    17    1
    24    17    22    1
    25    17    18    1
    26    22    23    1
    27    23    24    1
    28    23    25    1
    29    25    26    2
    30    25    27    1
    31    27    28   ar
    32    27    33   ar
    33    28    29   ar
    34    29    30   ar
    35    30    31    1
    36    30    32   ar
    37    32    33   ar



#	Name:			CHEMBL3604348
#	Creating user name:	trannguyen
#	Creation time:		Thu Dec  1 16:45:11 2022


#	Modifying user name:	trannguyen
#	Modification time:	Thu Dec  1 16:45:11 2022

@<TRIPOS>MOLECULE
CHEMBL3604348
 37 42 0 0 0
SMALL
GASTEIGER

@<TRIPOS>ATOM
      1 C           2.3051   68.2810   62.5699 C.ar    1  UNL1        0.1721
      2 C           2.4515   69.5808   63.0575 C.ar    1  UNL1        0.0397
      3 C           2.6985   69.8230   64.4245 C.ar    1  UNL1        0.0001
      4 C           2.7914   68.7697   65.3520 C.ar    1  UNL1       -0.0066
      5 C           2.6184   67.4837   64.8499 C.ar    1  UNL1        0.0187
      6 C           2.3649   67.2556   63.4950 C.ar    1  UNL1        0.1682
      7 O           2.1897   65.9246   63.2067 O.3     1  UNL1       -0.4757
      8 C           1.9467   65.3203   64.4967 C.3     1  UNL1        0.1761
      9 C           2.3884   63.8591   64.4417 C.3     1  UNL1        0.0779
     10 C           3.9016   63.7244   64.2689 C.3     1  UNL1        0.1358
     11 O           4.2793   63.9856   62.9234 O.3     1  UNL1       -0.3799
     12 C           4.6727   64.6654   65.1429 C.2     1  UNL1       -0.0015
     13 C           4.1414   65.7332   65.7397 C.2     1  UNL1       -0.0213
     14 C           2.6922   66.1735   65.5655 C.3     1  UNL1        0.0780
     15 C           1.8961   66.1482   66.8704 C.3     1  UNL1        0.0290
     16 C           2.4164   67.0400   67.9934 C.3     1  UNL1        0.0732
     17 N           2.1937   68.4857   67.7931 N.3     1  UNL1       -0.2686
     18 C           3.1484   69.0354   66.7968 C.3     1  UNL1        0.0990
     19 H           3.9002   64.8556   62.6921 H       1  UNL1        0.2108
     20 C           3.0700   68.7048   60.3711 C.3     1  UNL1        0.2526
     21 O           2.0692   68.1632   61.2300 O.3     1  UNL1       -0.4684
     22 C           2.3983   69.2003   69.0830 C.3     1  UNL1        0.0767
     23 C           3.0741   70.6019   68.9955 C.3     1  UNL1        0.0384
     24 C           2.8428   71.3620   70.3119 C.3     1  UNL1        0.0061
     25 C           4.5521   70.5529   68.6443 C.ar    1  UNL1       -0.0181
     26 C           5.5482   70.5852   69.6281 C.ar    1  UNL1       -0.0040
     27 C           6.8975   70.6335   69.2733 C.ar    1  UNL1        0.0028
     28 C           7.2668   70.7037   67.9301 C.ar    1  UNL1        0.0375
     29 C           6.2877   70.6955   66.9377 C.ar    1  UNL1        0.1450
     30 C           4.9433   70.5461   67.2958 C.ar    1  UNL1        0.0333
     31 O           6.7304   70.8125   65.6373 O.3     1  UNL1       -0.4535
     32 C           6.3899   69.8457   64.7142 C.ar    1  UNL1        0.1453
     33 C           6.1070   70.2988   63.4244 C.ar    1  UNL1        0.0375
     34 C           5.7822   69.3880   62.4166 C.ar    1  UNL1        0.0031
     35 C           5.7416   68.0221   62.6958 C.ar    1  UNL1        0.0002
     36 C           5.9847   67.5689   63.9908 C.ar    1  UNL1        0.0031
     37 C           6.2748   68.4820   65.0056 C.ar    1  UNL1        0.0375
@<TRIPOS>BOND
     1    20    21    1
     2    21     1    1
     3     1     2   ar
     4     1     6   ar
     5     2     3   ar
     6     3     4   ar
     7     4     5   ar
     8     4    18    1
     9     5     6   ar
    10     5    14    1
    11     6     7    1
    12     7     8    1
    13     8     9    1
    14     8    14    1
    15     9    10    1
    16    10    11    1
    17    10    12    1
    18    11    19    1
    19    12    13    2
    20    14    13    1
    21    14    15    1
    22    15    16    1
    23    16    17    1
    24    17    22    1
    25    17    18    1
    26    22    23    1
    27    23    24    1
    28    23    25    1
    29    25    26   ar
    30    25    30   ar
    31    26    27   ar
    32    27    28   ar
    33    28    29   ar
    34    29    31    1
    35    29    30   ar
    36    31    32    1
    37    32    33   ar
    38    32    37   ar
    39    33    34   ar
    40    34    35   ar
    41    35    36   ar
    42    36    37   ar



#	Name:			CHEMBL3604349
#	Creating user name:	trannguyen
#	Creation time:		Thu Dec  1 16:45:11 2022


#	Modifying user name:	trannguyen
#	Modification time:	Thu Dec  1 16:45:11 2022

@<TRIPOS>MOLECULE
CHEMBL3604349
 29 33 0 0 0
SMALL
GASTEIGER

@<TRIPOS>ATOM
      1 C           1.7968   59.2932   75.3896 C.ar    1  UNL1        0.1721
      2 C           2.2923   60.4931   75.9089 C.ar    1  UNL1        0.0397
      3 C           1.6186   61.1811   76.9365 C.ar    1  UNL1        0.0001
      4 C           0.4187   60.6905   77.4740 C.ar    1  UNL1       -0.0066
      5 C          -0.0828   59.5204   76.9161 C.ar    1  UNL1        0.0187
      6 C           0.5924   58.8399   75.8994 C.ar    1  UNL1        0.1682
      7 O          -0.0616   57.6962   75.5107 O.3     1  UNL1       -0.4757
      8 C          -1.4096   57.8776   76.0095 C.3     1  UNL1        0.1761
      9 C          -2.0297   56.5023   76.2680 C.3     1  UNL1        0.0779
     10 C          -1.3704   55.7772   77.4413 C.3     1  UNL1        0.1358
     11 O          -0.1052   55.2505   77.0677 O.3     1  UNL1       -0.3799
     12 C          -1.1574   56.6682   78.6219 C.2     1  UNL1       -0.0015
     13 C          -1.1722   58.0035   78.5570 C.2     1  UNL1       -0.0213
     14 C          -1.3419   58.7958   77.2696 C.3     1  UNL1        0.0780
     15 C          -2.5479   59.7500   77.2837 C.3     1  UNL1        0.0290
     16 C          -2.6136   60.7673   78.4336 C.3     1  UNL1        0.0734
     17 N          -1.6083   61.8526   78.4237 N.3     1  UNL1       -0.2652
     18 C          -0.2374   61.3536   78.6617 C.3     1  UNL1        0.0992
     19 H           0.4199   55.9969   76.7201 H       1  UNL1        0.2108
     20 C           3.2868   59.5980   73.5614 C.3     1  UNL1        0.2526
     21 O           2.5711   58.7199   74.4224 O.3     1  UNL1       -0.4684
     22 C          -1.9247   62.8406   79.4918 C.3     1  UNL1        0.0994
     23 C          -3.0185   63.8314   79.1366 C.ar    1  UNL1       -0.0061
     24 C          -4.2133   63.8778   79.8708 C.ar    1  UNL1       -0.0024
     25 C          -5.1971   64.8246   79.5686 C.ar    1  UNL1        0.0064
     26 C          -4.9983   65.7191   78.5190 C.ar    1  UNL1        0.0345
     27 BR         -6.3086   67.0271   78.1347 Br      1  UNL1       -0.0490
     28 C          -3.8351   65.6629   77.7553 C.ar    1  UNL1        0.0064
     29 C          -2.8490   64.7219   78.0635 C.ar    1  UNL1       -0.0024
@<TRIPOS>BOND
     1    20    21    1
     2    21     1    1
     3     1     2   ar
     4     1     6   ar
     5     2     3   ar
     6     3     4   ar
     7     4     5   ar
     8     4    18    1
     9     5     6   ar
    10     5    14    1
    11     6     7    1
    12     7     8    1
    13     8     9    1
    14     8    14    1
    15     9    10    1
    16    10    11    1
    17    10    12    1
    18    11    19    1
    19    12    13    2
    20    14    13    1
    21    14    15    1
    22    15    16    1
    23    16    17    1
    24    17    22    1
    25    17    18    1
    26    22    23    1
    27    23    24   ar
    28    23    29   ar
    29    24    25   ar
    30    25    26   ar
    31    26    27    1
    32    26    28   ar
    33    28    29   ar



#	Name:			CHEMBL3604350
#	Creating user name:	trannguyen
#	Creation time:		Thu Dec  1 16:45:11 2022


#	Modifying user name:	trannguyen
#	Modification time:	Thu Dec  1 16:45:11 2022

@<TRIPOS>MOLECULE
CHEMBL3604350
 27 30 0 0 0
SMALL
GASTEIGER

@<TRIPOS>ATOM
      1 N           3.3323   68.7769   66.6714 N.3     1  UNL1       -0.2596
      2 C           4.0107   69.5819   65.6354 C.3     1  UNL1        0.0737
      3 C           4.7670   68.8275   64.5301 C.3     1  UNL1        0.0290
      4 C           3.8748   68.0046   63.5817 C.3     1  UNL1        0.0780
      5 C           2.7051   68.7992   62.9820 C.2     1  UNL1       -0.0213
      6 C           3.0008   69.5647   61.9087 C.2     1  UNL1       -0.0015
      7 C           3.5686   68.8459   60.6988 C.3     1  UNL1        0.1358
      8 O           2.5958   68.8108   59.6691 O.3     1  UNL1       -0.3799
      9 C           4.0041   67.4200   61.0417 C.3     1  UNL1        0.0779
     10 C           4.6989   67.3546   62.4175 C.3     1  UNL1        0.1761
     11 O           4.9134   65.9585   62.6999 O.3     1  UNL1       -0.4757
     12 C           4.0752   65.6470   63.7365 C.ar    1  UNL1        0.1682
     13 C           3.9101   64.3781   64.2657 C.ar    1  UNL1        0.1721
     14 C           3.1553   64.2648   65.4383 C.ar    1  UNL1        0.0397
     15 C           2.5844   65.3978   66.0492 C.ar    1  UNL1        0.0001
     16 C           2.7488   66.6726   65.4899 C.ar    1  UNL1       -0.0066
     17 C           3.4712   66.7606   64.3043 C.ar    1  UNL1        0.0187
     18 C           2.2392   67.9219   66.1656 C.3     1  UNL1        0.0994
     19 H           2.0469   69.6087   59.7532 H       1  UNL1        0.2108
     20 O           4.4589   63.2201   63.7897 O.3     1  UNL1       -0.4684
     21 C           5.8816   63.1386   63.8482 C.3     1  UNL1        0.2526
     22 C           2.8340   69.6643   67.7633 C.3     1  UNL1        0.1835
     23 C           3.9367   70.2640   68.6471 C.2     1  UNL1        0.3336
     24 O           3.7961   70.7114   69.7711 O.2     1  UNL1       -0.2485
     25 O           5.1363   70.2163   67.9905 O.3     1  UNL1       -0.4475
     26 C           7.2013   70.8807   69.0905 C.3     1  UNL1        0.0513
     27 C           6.0000   71.3279   68.2751 C.3     1  UNL1        0.2086
@<TRIPOS>BOND
     1    26    27    1
     2    27    25    1
     3    25    23    1
     4    23    24    2
     5    23    22    1
     6    22     1    1
     7     1     2    1
     8     1    18    1
     9     2     3    1
    10     4     3    1
    11     4     5    1
    12     4    10    1
    13     4    17    1
    14     5     6    2
    15     6     7    1
    16     7     9    1
    17     7     8    1
    18     8    19    1
    19     9    10    1
    20    10    11    1
    21    11    12    1
    22    12    13   ar
    23    12    17   ar
    24    13    20    1
    25    13    14   ar
    26    20    21    1
    27    14    15   ar
    28    15    16   ar
    29    16    17   ar
    30    16    18    1



#	Name:			CHEMBL3604353
#	Creating user name:	trannguyen
#	Creation time:		Thu Dec  1 16:45:11 2022


#	Modifying user name:	trannguyen
#	Modification time:	Thu Dec  1 16:45:11 2022

@<TRIPOS>MOLECULE
CHEMBL3604353
 30 34 0 0 0
SMALL
GASTEIGER

@<TRIPOS>ATOM
      1 C          -4.0576   59.8788   77.6915 C.ar    1  UNL1        0.1721
      2 C          -4.2044   58.5275   78.0089 C.ar    1  UNL1        0.0398
      3 C          -3.1069   57.7562   78.4158 C.ar    1  UNL1        0.0004
      4 C          -1.8259   58.3206   78.5354 C.ar    1  UNL1       -0.0028
      5 C          -1.6812   59.6672   78.2119 C.ar    1  UNL1        0.0191
      6 C          -2.7814   60.4155   77.7773 C.ar    1  UNL1        0.1682
      7 O          -2.4429   61.7129   77.4716 O.3     1  UNL1       -0.4757
      8 C          -1.0024   61.6581   77.3175 C.3     1  UNL1        0.1761
      9 C          -0.4262   63.0512   77.5657 C.3     1  UNL1        0.0779
     10 C          -0.6171   63.5009   79.0138 C.3     1  UNL1        0.1358
     11 O          -1.9464   63.9624   79.2195 O.3     1  UNL1       -0.3799
     12 C          -0.3649   62.4132   80.0102 C.2     1  UNL1       -0.0015
     13 C          -0.2847   61.1085   79.6984 C.2     1  UNL1       -0.0212
     14 C          -0.4713   60.5595   78.2882 C.3     1  UNL1        0.0783
     15 C           0.8391   59.9587   77.7363 C.3     1  UNL1        0.0332
     16 C           1.3481   58.7096   78.4628 C.3     1  UNL1        0.0948
     17 N           0.5045   57.5347   78.2402 N.am    1  UNL1       -0.2720
     18 C           0.7377   56.7866   77.0752 C.2     1  UNL1        0.2493
     19 O           1.6206   57.1135   76.2666 O.2     1  UNL1       -0.2699
     20 C          -0.6994   57.4857   79.0682 C.3     1  UNL1        0.1202
     21 H          -2.5388   63.2333   78.9532 H       1  UNL1        0.2108
     22 C          -0.0603   55.5717   76.7269 C.ar    1  UNL1        0.0536
     23 C          -1.1741   55.7210   75.8827 C.ar    1  UNL1        0.0050
     24 C          -1.9417   54.6137   75.5017 C.ar    1  UNL1        0.0068
     25 C          -1.6104   53.3490   75.9805 C.ar    1  UNL1        0.0346
     26 BR         -2.6603   51.8506   75.5080 Br      1  UNL1       -0.0490
     27 C          -0.4865   53.1764   76.7834 C.ar    1  UNL1        0.0068
     28 C           0.3141   54.2770   77.1078 C.ar    1  UNL1        0.0050
     29 C          -6.0646   59.8019   76.4237 C.3     1  UNL1        0.2526
     30 O          -5.2134   60.5018   77.3211 O.3     1  UNL1       -0.4684
@<TRIPOS>BOND
     1    29    30    1
     2    30     1    1
     3     1     2   ar
     4     1     6   ar
     5     2     3   ar
     6     3     4   ar
     7     4     5   ar
     8     4    20    1
     9     5     6   ar
    10     5    14    1
    11     6     7    1
    12     7     8    1
    13     8     9    1
    14     8    14    1
    15     9    10    1
    16    10    11    1
    17    10    12    1
    18    11    21    1
    19    12    13    2
    20    14    13    1
    21    14    15    1
    22    15    16    1
    23    16    17    1
    24    17    18   am
    25    17    20    1
    26    18    19    2
    27    18    22    1
    28    22    23   ar
    29    22    28   ar
    30    23    24   ar
    31    24    25   ar
    32    25    26    1
    33    25    27   ar
    34    27    28   ar



#	Name:			CHEMBL3604355
#	Creating user name:	trannguyen
#	Creation time:		Thu Dec  1 16:45:11 2022


#	Modifying user name:	trannguyen
#	Modification time:	Thu Dec  1 16:45:11 2022

@<TRIPOS>MOLECULE
CHEMBL3604355
 25 28 0 0 0
SMALL
GASTEIGER

@<TRIPOS>ATOM
      1 C           3.7739   61.0192   79.5365 C.ar    1  UNL1        0.1721
      2 C           3.3683   61.7811   80.6340 C.ar    1  UNL1        0.0397
      3 C           2.0576   62.2907   80.7228 C.ar    1  UNL1        0.0001
      4 C           1.1103   62.0587   79.7089 C.ar    1  UNL1       -0.0066
      5 C           1.5281   61.2894   78.6280 C.ar    1  UNL1        0.0187
      6 C           2.8305   60.7914   78.5499 C.ar    1  UNL1        0.1682
      7 O           3.0438   60.0463   77.4168 O.3     1  UNL1       -0.4757
      8 C           1.9607   60.4220   76.5406 C.3     1  UNL1        0.1761
      9 C           1.7013   59.2547   75.5884 C.3     1  UNL1        0.0779
     10 C           1.0802   58.0488   76.2934 C.3     1  UNL1        0.1358
     11 O           2.0721   57.2985   76.9815 O.3     1  UNL1       -0.3799
     12 C           0.0254   58.4190   77.2844 C.2     1  UNL1       -0.0015
     13 C          -0.1416   59.6557   77.7769 C.2     1  UNL1       -0.0213
     14 C           0.7507   60.8347   77.4318 C.3     1  UNL1        0.0780
     15 C          -0.0115   61.9795   76.7583 C.3     1  UNL1        0.0290
     16 C          -1.1664   62.5873   77.5562 C.3     1  UNL1        0.0732
     17 N          -0.7672   63.4101   78.7148 N.3     1  UNL1       -0.2680
     18 C          -0.3077   62.5637   79.8444 C.3     1  UNL1        0.0990
     19 H           2.5897   57.9311   77.5152 H       1  UNL1        0.2108
     20 C           5.9514   61.2750   80.4456 C.3     1  UNL1        0.2526
     21 O           5.0713   60.5916   79.5572 O.3     1  UNL1       -0.4684
     22 C          -1.9078   64.2496   79.1722 C.3     1  UNL1        0.0887
     23 C          -3.0479   64.3895   78.1479 C.3     1  UNL1        0.1227
     24 C          -3.2475   65.7921   77.7784 C.1     1  UNL1        0.0746
     25 N          -3.3836   66.9156   77.5006 N.1     1  UNL1       -0.1958
@<TRIPOS>BOND
     1    20    21    1
     2    21     1    1
     3     1     2   ar
     4     1     6   ar
     5     2     3   ar
     6     3     4   ar
     7     4     5   ar
     8     4    18    1
     9     5     6   ar
    10     5    14    1
    11     6     7    1
    12     7     8    1
    13     8     9    1
    14     8    14    1
    15     9    10    1
    16    10    11    1
    17    10    12    1
    18    11    19    1
    19    12    13    2
    20    14    13    1
    21    14    15    1
    22    15    16    1
    23    16    17    1
    24    17    22    1
    25    17    18    1
    26    22    23    1
    27    23    24    1
    28    24    25    3



#	Name:			CHEMBL3633525
#	Creating user name:	trannguyen
#	Creation time:		Thu Dec  1 16:45:11 2022


#	Modifying user name:	trannguyen
#	Modification time:	Thu Dec  1 16:45:11 2022

@<TRIPOS>MOLECULE
CHEMBL3633525
 27 30 0 0 0
SMALL
GASTEIGER

@<TRIPOS>ATOM
      1 C           4.8827   68.8950   64.1484 C.2     1  UNL1        0.0144
      2 C           5.2137   69.7232   63.0782 C.2     1  UNL1       -0.0016
      3 C           5.1496   69.2292   61.7781 C.2     1  UNL1       -0.0047
      4 C           4.7659   67.9094   61.5637 C.3     1  UNL1        0.1177
      5 N           4.5088   67.0868   62.6058 N.pl3   1  UNL1       -0.2986
      6 C           4.5141   67.5756   63.8679 C.2     1  UNL1        0.0618
      7 C           3.6393   69.4704   66.2098 C.2     1  UNL1        0.0453
      8 C           4.7862   69.4448   65.5113 C.2     1  UNL1        0.0046
      9 O           2.4457   70.3874   68.0402 O.2     1  UNL1       -0.2833
     10 C           3.5338   70.1249   67.5603 C.2     1  UNL1        0.2299
     11 C           4.7956   70.4085   68.2232 C.ar    1  UNL1        0.1840
     12 C           5.9428   71.0394   67.7701 C.ar    1  UNL1        0.0438
     13 C           6.8686   71.0533   68.8494 C.ar    1  UNL1        0.0377
     14 C           8.1743   71.5328   69.0561 C.ar    1  UNL1        0.0031
     15 C           8.7703   71.3428   70.3130 C.ar    1  UNL1        0.0002
     16 C           8.0892   70.6900   71.3442 C.ar    1  UNL1        0.0031
     17 C           6.7901   70.2091   71.1587 C.ar    1  UNL1        0.0375
     18 C           6.2265   70.4159   69.9018 C.ar    1  UNL1        0.1454
     19 O           4.9799   70.0287   69.5297 O.2     1  UNL1       -0.4503
     20 C           4.0418   65.6976   62.3589 C.3     1  UNL1        0.1185
     21 C           4.0135   64.8724   63.6378 C.ar    1  UNL1        0.0038
     22 C           4.9146   63.7940   63.7727 C.ar    1  UNL1       -0.0021
     23 C           4.9260   62.9886   64.9187 C.ar    1  UNL1       -0.0002
     24 C           4.0412   63.2411   65.9598 C.ar    1  UNL1        0.0005
     25 C           3.1458   64.3009   65.8547 C.ar    1  UNL1        0.0064
     26 C           3.1297   65.1110   64.7080 C.ar    1  UNL1        0.0322
     27 BR          1.8519   66.5153   64.7081 Br      1  UNL1       -0.0493
@<TRIPOS>BOND
     1     9    10    2
     2    10     7    1
     3    10    11    1
     4     7     8    2
     5     8     1    1
     6     1     2    1
     7     1     6    2
     8     2     3    2
     9     3     4    1
    10     4     5    1
    11     5    20    1
    12     5     6    1
    13    20    21    1
    14    21    22   ar
    15    21    26   ar
    16    22    23   ar
    17    23    24   ar
    18    24    25   ar
    19    25    26   ar
    20    26    27    1
    21    11    12   ar
    22    11    19   ar
    23    12    13   ar
    24    13    14   ar
    25    13    18   ar
    26    14    15   ar
    27    15    16   ar
    28    16    17   ar
    29    17    18   ar
    30    18    19   ar



#	Name:			CHEMBL3633863
#	Creating user name:	trannguyen
#	Creation time:		Thu Dec  1 16:45:11 2022


#	Modifying user name:	trannguyen
#	Modification time:	Thu Dec  1 16:45:11 2022

@<TRIPOS>MOLECULE
CHEMBL3633863
 29 32 0 0 0
SMALL
GASTEIGER

@<TRIPOS>ATOM
      1 C          -0.4654   61.3262   77.9106 C.2     1  UNL1        0.0144
      2 C          -0.2883   61.9008   76.6534 C.2     1  UNL1       -0.0016
      3 C          -0.7761   63.1787   76.4077 C.2     1  UNL1       -0.0047
      4 C          -1.4518   63.8580   77.4162 C.3     1  UNL1        0.1177
      5 N          -1.6483   63.2828   78.6254 N.pl3   1  UNL1       -0.2986
      6 C          -1.1828   62.0342   78.8750 C.2     1  UNL1        0.0618
      7 C           0.9891   59.4114   77.3860 C.2     1  UNL1        0.0453
      8 C           0.0874   60.0017   78.1871 C.2     1  UNL1        0.0046
      9 O           2.7064   58.1563   78.4246 O.2     1  UNL1       -0.2833
     10 C           1.6347   58.1289   77.8201 C.2     1  UNL1        0.2299
     11 C           0.9942   56.9014   77.3937 C.ar    1  UNL1        0.1840
     12 C          -0.1493   56.6818   76.6502 C.ar    1  UNL1        0.0439
     13 C          -0.3636   55.2777   76.6189 C.ar    1  UNL1        0.0382
     14 C          -1.3452   54.4129   76.1067 C.ar    1  UNL1        0.0098
     15 C          -1.1816   53.0327   76.3007 C.ar    1  UNL1        0.0348
     16 BR         -2.5036   51.8460   75.6457 Br      1  UNL1       -0.0490
     17 C          -0.0716   52.5131   76.9725 C.ar    1  UNL1        0.0098
     18 C           0.9108   53.3605   77.4912 C.ar    1  UNL1        0.0380
     19 C           0.7171   54.7236   77.2983 C.ar    1  UNL1        0.1455
     20 O           1.5291   55.7019   77.7698 O.2     1  UNL1       -0.4503
     21 C          -2.5573   63.9359   79.6036 C.3     1  UNL1        0.1180
     22 C          -3.9646   64.1547   79.0652 C.ar    1  UNL1       -0.0015
     23 C          -4.8117   63.0469   78.8707 C.ar    1  UNL1       -0.0017
     24 C          -6.1358   63.2150   78.4419 C.ar    1  UNL1        0.0120
     25 C          -6.6469   64.4935   78.2125 C.ar    1  UNL1        0.0682
     26 CL         -8.2882   64.6319   77.6948 Cl      1  UNL1       -0.0814
     27 C          -5.8245   65.6046   78.4110 C.ar    1  UNL1        0.0679
     28 CL         -6.3760   67.2225   78.1580 Cl      1  UNL1       -0.0814
     29 C          -4.4972   65.4338   78.8365 C.ar    1  UNL1        0.0096
@<TRIPOS>BOND
     1     9    10    2
     2    10     7    1
     3    10    11    1
     4     7     8    2
     5     8     1    1
     6     1     2    1
     7     1     6    2
     8     2     3    2
     9     3     4    1
    10     4     5    1
    11     5    21    1
    12     5     6    1
    13    21    22    1
    14    22    23   ar
    15    22    29   ar
    16    23    24   ar
    17    24    25   ar
    18    25    26    1
    19    25    27   ar
    20    27    28    1
    21    27    29   ar
    22    11    12   ar
    23    11    20   ar
    24    12    13   ar
    25    13    14   ar
    26    13    19   ar
    27    14    15   ar
    28    15    16    1
    29    15    17   ar
    30    17    18   ar
    31    18    19   ar
    32    19    20   ar



#	Name:			CHEMBL3633864
#	Creating user name:	trannguyen
#	Creation time:		Thu Dec  1 16:45:11 2022


#	Modifying user name:	trannguyen
#	Modification time:	Thu Dec  1 16:45:11 2022

@<TRIPOS>MOLECULE
CHEMBL3633864
 28 31 0 0 0
SMALL
GASTEIGER

@<TRIPOS>ATOM
      1 C          -3.4122   57.7491   75.6672 C.2     1  UNL1        0.0453
      2 C          -2.0885   57.8753   75.8447 C.2     1  UNL1        0.0046
      3 C          -1.2363   56.7663   76.2858 C.2     1  UNL1        0.0144
      4 C          -0.0490   57.0096   76.9738 C.2     1  UNL1       -0.0016
      5 C           0.7412   55.9365   77.3778 C.2     1  UNL1       -0.0047
      6 C           0.3357   54.6362   77.0880 C.3     1  UNL1        0.1177
      7 N          -0.8115   54.4130   76.4051 N.pl3   1  UNL1       -0.2986
      8 C          -1.5951   55.4446   76.0148 C.2     1  UNL1        0.0618
      9 C          -1.2578   53.0202   76.1592 C.3     1  UNL1        0.1180
     10 C          -2.4561   52.6485   76.9885 C.ar    1  UNL1       -0.0024
     11 C          -3.6568   52.2647   76.3808 C.ar    1  UNL1       -0.0026
     12 C          -4.7634   51.9371   77.1636 C.ar    1  UNL1       -0.0003
     13 C          -4.6837   52.0012   78.5545 C.ar    1  UNL1       -0.0000
     14 C          -3.5024   52.4082   79.1691 C.ar    1  UNL1       -0.0003
     15 C          -2.3922   52.7299   78.3909 C.ar    1  UNL1       -0.0026
     16 C          -4.2272   58.9575   75.2828 C.2     1  UNL1        0.2299
     17 O          -3.7310   59.8184   74.5900 O.2     1  UNL1       -0.2833
     18 C          -8.3810   57.3088   77.1681 C.ar    1  UNL1        0.1730
     19 C          -9.5938   57.8630   77.5940 C.ar    1  UNL1        0.0401
     20 C          -9.8135   59.2434   77.5543 C.ar    1  UNL1        0.0033
     21 C          -8.8355   60.1176   77.0543 C.ar    1  UNL1        0.0033
     22 C          -7.6191   59.5817   76.5921 C.ar    1  UNL1        0.0407
     23 C          -6.4243   60.1071   76.0144 C.ar    1  UNL1        0.0440
     24 C          -5.5784   59.0324   75.8102 C.ar    1  UNL1        0.1842
     25 O          -6.1913   57.8907   76.2006 O.2     1  UNL1       -0.4472
     26 C          -7.4274   58.2068   76.6716 C.ar    1  UNL1        0.1791
     27 C          -7.5974   55.4400   78.3821 C.3     1  UNL1        0.2526
     28 O          -8.2715   55.9318   77.2274 O.3     1  UNL1       -0.4684
@<TRIPOS>BOND
     1    27    28    1
     2    28    18    1
     3    18    19   ar
     4    18    26   ar
     5    19    20   ar
     6    20    21   ar
     7    21    22   ar
     8    22    23   ar
     9    22    26   ar
    10    23    24   ar
    11    24    16    1
    12    24    25   ar
    13    16    17    2
    14    16     1    1
    15     1     2    2
    16     2     3    1
    17     3     4    1
    18     3     8    2
    19     4     5    2
    20     5     6    1
    21     6     7    1
    22     7     9    1
    23     7     8    1
    24     9    10    1
    25    10    11   ar
    26    10    15   ar
    27    11    12   ar
    28    12    13   ar
    29    13    14   ar
    30    14    15   ar
    31    25    26   ar



#	Name:			CHEMBL3633865
#	Creating user name:	trannguyen
#	Creation time:		Thu Dec  1 16:45:11 2022


#	Modifying user name:	trannguyen
#	Modification time:	Thu Dec  1 16:45:11 2022

@<TRIPOS>MOLECULE
CHEMBL3633865
 29 32 0 0 0
SMALL
GASTEIGER

@<TRIPOS>ATOM
      1 C          -3.8471   58.4389   75.8563 C.2     1  UNL1        0.0453
      2 C          -2.6284   58.9414   76.1240 C.2     1  UNL1        0.0046
      3 C          -1.5388   58.1029   76.6324 C.2     1  UNL1        0.0144
      4 C          -0.2153   58.3809   76.2895 C.2     1  UNL1       -0.0016
      5 C           0.7951   57.5309   76.7212 C.2     1  UNL1       -0.0047
      6 C           0.4657   56.4045   77.4613 C.3     1  UNL1        0.1177
      7 N          -0.8180   56.1277   77.7806 N.pl3   1  UNL1       -0.2986
      8 C          -1.8111   56.9773   77.4198 C.2     1  UNL1        0.0618
      9 C          -1.1388   54.8262   78.4513 C.3     1  UNL1        0.1185
     10 C          -1.6118   53.7649   77.4701 C.ar    1  UNL1        0.0038
     11 C          -2.9627   53.6826   77.0791 C.ar    1  UNL1       -0.0021
     12 C          -3.4103   52.7201   76.1742 C.ar    1  UNL1       -0.0002
     13 C          -2.5081   51.8462   75.5866 C.ar    1  UNL1        0.0005
     14 C          -1.1643   51.9017   75.9461 C.ar    1  UNL1        0.0064
     15 C          -0.7267   52.8226   76.9105 C.ar    1  UNL1        0.0322
     16 BR          1.0727   52.6527   77.4964 Br      1  UNL1       -0.0493
     17 C          -4.9395   59.3019   75.2999 C.2     1  UNL1        0.2299
     18 O          -4.6884   60.0772   74.3657 O.2     1  UNL1       -0.2833
     19 C          -8.6960   56.9918   77.3324 C.ar    1  UNL1        0.1730
     20 C          -9.9858   57.3327   77.7581 C.ar    1  UNL1        0.0401
     21 C         -10.4437   58.6517   77.6982 C.ar    1  UNL1        0.0033
     22 C          -9.6271   59.6768   77.1976 C.ar    1  UNL1        0.0033
     23 C          -8.3381   59.3538   76.7322 C.ar    1  UNL1        0.0407
     24 C          -7.2495   60.0780   76.1691 C.ar    1  UNL1        0.0440
     25 C          -6.2560   59.1593   75.8807 C.ar    1  UNL1        0.1842
     26 O          -6.6735   57.9131   76.2525 O.2     1  UNL1       -0.4472
     27 C          -7.9204   58.0280   76.7958 C.ar    1  UNL1        0.1791
     28 C          -7.4884   55.3585   78.5259 C.3     1  UNL1        0.2526
     29 O          -8.3458   55.6579   77.4283 O.3     1  UNL1       -0.4684
@<TRIPOS>BOND
     1    28    29    1
     2    29    19    1
     3    19    20   ar
     4    19    27   ar
     5    20    21   ar
     6    21    22   ar
     7    22    23   ar
     8    23    24   ar
     9    23    27   ar
    10    24    25   ar
    11    25    17    1
    12    25    26   ar
    13    17    18    2
    14    17     1    1
    15     1     2    2
    16     2     3    1
    17     3     4    1
    18     3     8    2
    19     4     5    2
    20     5     6    1
    21     6     7    1
    22     7     9    1
    23     7     8    1
    24     9    10    1
    25    10    11   ar
    26    10    15   ar
    27    11    12   ar
    28    12    13   ar
    29    13    14   ar
    30    14    15   ar
    31    15    16    1
    32    26    27   ar



#	Name:			CHEMBL3633868
#	Creating user name:	trannguyen
#	Creation time:		Thu Dec  1 16:45:11 2022


#	Modifying user name:	trannguyen
#	Modification time:	Thu Dec  1 16:45:11 2022

@<TRIPOS>MOLECULE
CHEMBL3633868
 30 33 0 0 0
SMALL
GASTEIGER

@<TRIPOS>ATOM
      1 C          -3.8659   58.6084   75.4063 C.2     1  UNL1        0.0453
      2 C          -2.9434   59.0237   76.3188 C.2     1  UNL1        0.0046
      3 C          -1.6425   58.3326   76.5599 C.2     1  UNL1        0.0144
      4 C          -0.5528   59.0803   77.0059 C.2     1  UNL1       -0.0016
      5 C           0.6543   58.4501   77.3030 C.2     1  UNL1       -0.0047
      6 C           0.7538   57.0696   77.1704 C.3     1  UNL1        0.1177
      7 N          -0.2907   56.3524   76.6974 N.pl3   1  UNL1       -0.2986
      8 C          -1.4671   56.9614   76.4085 C.2     1  UNL1        0.0618
      9 C          -0.1709   54.8859   76.4734 C.3     1  UNL1        0.1189
     10 C          -1.4075   54.0908   76.8746 C.ar    1  UNL1        0.0090
     11 C          -2.0862   53.3925   75.8498 C.ar    1  UNL1       -0.0017
     12 C          -3.2757   52.7044   76.1047 C.ar    1  UNL1        0.0007
     13 C          -3.8245   52.7150   77.3821 C.ar    1  UNL1        0.0122
     14 C          -3.1396   53.3332   78.4256 C.ar    1  UNL1        0.0679
     15 CL         -3.8918   53.3105   79.9854 Cl      1  UNL1       -0.0814
     16 C          -1.9046   53.9662   78.1920 C.ar    1  UNL1        0.0658
     17 CL         -0.9992   54.5226   79.5621 Cl      1  UNL1       -0.0816
     18 C          -5.1455   59.3891   75.2633 C.2     1  UNL1        0.2299
     19 O          -5.2988   60.1529   74.3289 O.2     1  UNL1       -0.2833
     20 C          -8.2020   56.7327   78.0349 C.ar    1  UNL1        0.1730
     21 C          -9.1821   57.0184   78.9938 C.ar    1  UNL1        0.0401
     22 C          -9.4723   58.3304   79.3672 C.ar    1  UNL1        0.0033
     23 C          -8.7891   59.4081   78.7877 C.ar    1  UNL1        0.0033
     24 C          -7.8037   59.1487   77.8159 C.ar    1  UNL1        0.0407
     25 C          -6.9120   59.9499   77.0467 C.ar    1  UNL1        0.0440
     26 C          -6.1869   59.1042   76.2224 C.ar    1  UNL1        0.1842
     27 O          -6.6052   57.8108   76.4635 O.2     1  UNL1       -0.4472
     28 C          -7.5475   57.8303   77.4498 C.ar    1  UNL1        0.1791
     29 C          -7.0281   54.7447   78.5055 C.3     1  UNL1        0.2526
     30 O          -8.0387   55.3917   77.7360 O.3     1  UNL1       -0.4684
@<TRIPOS>BOND
     1    29    30    1
     2    30    20    1
     3    20    21   ar
     4    20    28   ar
     5    21    22   ar
     6    22    23   ar
     7    23    24   ar
     8    24    25   ar
     9    24    28   ar
    10    25    26   ar
    11    26    18    1
    12    26    27   ar
    13    18    19    2
    14    18     1    1
    15     1     2    2
    16     2     3    1
    17     3     4    1
    18     3     8    2
    19     4     5    2
    20     5     6    1
    21     6     7    1
    22     7     9    1
    23     7     8    1
    24     9    10    1
    25    10    11   ar
    26    10    16   ar
    27    11    12   ar
    28    12    13   ar
    29    13    14   ar
    30    14    15    1
    31    14    16   ar
    32    16    17    1
    33    27    28   ar



#	Name:			CHEMBL3633869
#	Creating user name:	trannguyen
#	Creation time:		Thu Dec  1 16:45:11 2022


#	Modifying user name:	trannguyen
#	Modification time:	Thu Dec  1 16:45:11 2022

@<TRIPOS>MOLECULE
CHEMBL3633869
 26 29 0 0 0
SMALL
GASTEIGER

@<TRIPOS>ATOM
      1 C          -0.1080   57.6807   77.5872 C.2     1  UNL1        0.0452
      2 C          -0.8072   58.0034   76.4865 C.2     1  UNL1        0.0032
      3 C          -2.2688   58.0183   76.5125 C.2     1  UNL1       -0.0012
      4 C          -2.9523   57.6218   77.6585 C.2     1  UNL1       -0.0047
      5 C          -4.3353   57.7589   77.7122 C.3     1  UNL1        0.1177
      6 N          -5.0223   58.2611   76.6607 N.pl3   1  UNL1       -0.2986
      7 C          -4.3721   58.6485   75.5389 C.2     1  UNL1        0.0618
      8 C          -2.9916   58.5210   75.4341 C.2     1  UNL1        0.0155
      9 C          -6.4723   58.5461   76.8083 C.3     1  UNL1        0.1180
     10 C          -6.7673   60.0340   76.8478 C.ar    1  UNL1       -0.0024
     11 C          -6.3078   60.8022   77.9328 C.ar    1  UNL1       -0.0026
     12 C          -6.5415   62.1803   77.9858 C.ar    1  UNL1       -0.0003
     13 C          -7.2275   62.8133   76.9532 C.ar    1  UNL1       -0.0000
     14 C          -7.6656   62.0735   75.8596 C.ar    1  UNL1       -0.0003
     15 C          -7.4287   60.6979   75.8015 C.ar    1  UNL1       -0.0026
     16 O           1.9771   56.6824   77.0842 O.2     1  UNL1       -0.2833
     17 C           1.3886   57.6517   77.5761 C.2     1  UNL1        0.2299
     18 C           2.0860   58.7852   78.1479 C.ar    1  UNL1        0.1840
     19 C           1.7320   60.1198   78.2562 C.ar    1  UNL1        0.0438
     20 C           2.7982   60.7819   78.9241 C.ar    1  UNL1        0.0377
     21 C           3.0693   62.0964   79.3451 C.ar    1  UNL1        0.0031
     22 C           4.2782   62.3537   80.0112 C.ar    1  UNL1        0.0002
     23 C           5.2029   61.3327   80.2496 C.ar    1  UNL1        0.0031
     24 C           4.9547   60.0222   79.8312 C.ar    1  UNL1        0.0375
     25 C           3.7449   59.7993   79.1799 C.ar    1  UNL1        0.1454
     26 O           3.3196   58.5981   78.7115 O.2     1  UNL1       -0.4503
@<TRIPOS>BOND
     1    16    17    2
     2    17     1    1
     3    17    18    1
     4     1     2    2
     5     2     3    1
     6     3     4    2
     7     3     8    1
     8     4     5    1
     9     5     6    1
    10     6     9    1
    11     6     7    1
    12     9    10    1
    13    10    11   ar
    14    10    15   ar
    15    11    12   ar
    16    12    13   ar
    17    13    14   ar
    18    14    15   ar
    19     7     8    2
    20    18    19   ar
    21    18    26   ar
    22    19    20   ar
    23    20    21   ar
    24    20    25   ar
    25    21    22   ar
    26    22    23   ar
    27    23    24   ar
    28    24    25   ar
    29    25    26   ar



#	Name:			CHEMBL3633871
#	Creating user name:	trannguyen
#	Creation time:		Thu Dec  1 16:45:11 2022


#	Modifying user name:	trannguyen
#	Modification time:	Thu Dec  1 16:45:11 2022

@<TRIPOS>MOLECULE
CHEMBL3633871
 28 31 0 0 0
SMALL
GASTEIGER

@<TRIPOS>ATOM
      1 C          -5.4201   58.8642   76.3028 C.2     1  UNL1       -0.0012
      2 C          -4.0476   58.8700   76.0732 C.2     1  UNL1       -0.0047
      3 C          -3.2548   57.8498   76.5838 C.3     1  UNL1        0.1177
      4 N          -3.7939   56.8308   77.2931 N.pl3   1  UNL1       -0.2986
      5 C          -5.1252   56.8104   77.5391 C.2     1  UNL1        0.0618
      6 C          -5.9541   57.8221   77.0602 C.2     1  UNL1        0.0155
      7 C          -6.9925   60.7685   76.6037 C.2     1  UNL1        0.0452
      8 C          -6.2287   59.9902   75.8194 C.2     1  UNL1        0.0032
      9 O          -8.2258   61.8224   74.8934 O.2     1  UNL1       -0.2833
     10 C          -7.7583   61.9247   76.0312 C.2     1  UNL1        0.2299
     11 C          -7.8840   63.1061   76.8581 C.ar    1  UNL1        0.1840
     12 C          -7.2696   63.4583   78.0461 C.ar    1  UNL1        0.0438
     13 C          -7.7416   64.7521   78.3911 C.ar    1  UNL1        0.0377
     14 C          -7.4947   65.6663   79.4291 C.ar    1  UNL1        0.0031
     15 C          -8.1721   66.8947   79.4184 C.ar    1  UNL1        0.0002
     16 C          -9.0777   67.2113   78.4015 C.ar    1  UNL1        0.0031
     17 C          -9.3342   66.3147   77.3587 C.ar    1  UNL1        0.0375
     18 C          -8.6423   65.1054   77.3963 C.ar    1  UNL1        0.1454
     19 O          -8.7386   64.1109   76.4712 O.2     1  UNL1       -0.4503
     20 C          -2.9102   55.7790   77.8688 C.3     1  UNL1        0.1189
     21 C          -3.1783   54.4117   77.2800 C.ar    1  UNL1        0.0090
     22 C          -4.1548   53.5931   77.8822 C.ar    1  UNL1       -0.0017
     23 C          -4.4457   52.3258   77.3724 C.ar    1  UNL1        0.0007
     24 C          -3.7640   51.8468   76.2575 C.ar    1  UNL1        0.0122
     25 C          -2.7785   52.6270   75.6539 C.ar    1  UNL1        0.0679
     26 CL         -1.9546   51.9500   74.2929 Cl      1  UNL1       -0.0814
     27 C          -2.4816   53.9059   76.1589 C.ar    1  UNL1        0.0658
     28 CL         -1.2287   54.8475   75.4157 Cl      1  UNL1       -0.0816
@<TRIPOS>BOND
     1     9    10    2
     2    10     7    1
     3    10    11    1
     4     7     8    2
     5     8     1    1
     6     1     2    2
     7     1     6    1
     8     2     3    1
     9     3     4    1
    10     4    20    1
    11     4     5    1
    12    20    21    1
    13    21    22   ar
    14    21    27   ar
    15    22    23   ar
    16    23    24   ar
    17    24    25   ar
    18    25    26    1
    19    25    27   ar
    20    27    28    1
    21     5     6    2
    22    11    12   ar
    23    11    19   ar
    24    12    13   ar
    25    13    14   ar
    26    13    18   ar
    27    14    15   ar
    28    15    16   ar
    29    16    17   ar
    30    17    18   ar
    31    18    19   ar



#	Name:			CHEMBL376514
#	Creating user name:	trannguyen
#	Creation time:		Thu Dec  1 16:45:11 2022


#	Modifying user name:	trannguyen
#	Modification time:	Thu Dec  1 16:45:11 2022

@<TRIPOS>MOLECULE
CHEMBL376514
 23 25 0 0 0
SMALL
GASTEIGER

@<TRIPOS>ATOM
      1 C          -7.9130   75.1717   73.4354 C.2     1  UNL1        0.2476
      2 O          -7.3240   75.8212   72.5401 O.2     1  UNL1       -0.2727
      3 N          -8.1164   75.6539   74.7555 N.am    1  UNL1       -0.2353
      4 C          -8.2709   74.8461   75.9136 C.ar    1  UNL1        0.0641
      5 C          -7.4077   73.7649   76.1361 C.ar    1  UNL1        0.0157
      6 C          -7.4505   73.0557   77.3411 C.ar    1  UNL1        0.0013
      7 C          -8.3623   73.4156   78.3310 C.ar    1  UNL1        0.0006
      8 C          -9.2227   74.4944   78.1270 C.ar    1  UNL1        0.0077
      9 C          -9.1687   75.2209   76.9312 C.ar    1  UNL1        0.0435
     10 S         -10.2175   76.6528   76.7184 S.3     1  UNL1       -0.0844
     11 C          -9.0203   77.6617   75.8551 C.ar    1  UNL1        0.0435
     12 C          -9.0554   79.0525   76.0181 C.ar    1  UNL1        0.0077
     13 C          -8.0577   79.8458   75.4529 C.ar    1  UNL1        0.0006
     14 C          -7.0042   79.2482   74.7658 C.ar    1  UNL1        0.0013
     15 C          -6.9980   77.8662   74.5507 C.ar    1  UNL1        0.0157
     16 C          -8.0373   77.0655   75.0469 C.ar    1  UNL1        0.0641
     17 C          -8.6162   73.8153   73.0781 C.3     1  UNL1        0.1357
     18 C          -7.5403   72.9210   72.4375 C.3     1  UNL1        0.0272
     19 N          -9.7896   73.9533   72.1245 N.3     1  UNL1       -0.2665
     20 C         -10.5521   76.1057   70.9616 C.3     1  UNL1        0.0188
     21 C         -10.4649   75.2668   72.2394 C.3     1  UNL1        0.0725
     22 C          -9.4574   73.6178   70.7263 C.3     1  UNL1        0.0725
     23 C         -10.2867   72.4736   70.1206 C.3     1  UNL1        0.0188
@<TRIPOS>BOND
     1    20    21    1
     2    21    19    1
     3    19    22    1
     4    19    17    1
     5    22    23    1
     6    17    18    1
     7    17     1    1
     8     1     2    2
     9     1     3   am
    10     3     4    1
    11     3    16    1
    12     4     5   ar
    13     4     9   ar
    14     5     6   ar
    15     6     7   ar
    16     7     8   ar
    17     8     9   ar
    18     9    10    1
    19    10    11    1
    20    11    12   ar
    21    11    16   ar
    22    12    13   ar
    23    13    14   ar
    24    14    15   ar
    25    15    16   ar



#	Name:			CHEMBL393212
#	Creating user name:	trannguyen
#	Creation time:		Thu Dec  1 16:45:11 2022


#	Modifying user name:	trannguyen
#	Modification time:	Thu Dec  1 16:45:11 2022

@<TRIPOS>MOLECULE
CHEMBL393212
 37 41 0 0 0
SMALL
GASTEIGER

@<TRIPOS>ATOM
      1 C           2.8915   60.9705   79.6217 C.2     1  UNL1        0.1951
      2 N           2.6110   59.7194   79.5386 N.2     1  UNL1       -0.2432
      3 C           1.3612   59.3108   78.8903 C.3     1  UNL1        0.1140
      4 C           1.5463   57.9240   78.2600 C.3     1  UNL1        0.0499
      5 C           0.4353   57.5648   77.3131 C.2     1  UNL1       -0.0326
      6 C          -0.5076   58.4286   76.8851 C.2     1  UNL1       -0.0481
      7 C          -1.6443   57.9542   76.0114 C.3     1  UNL1        0.0290
      8 C          -2.8865   57.7429   76.8887 C.3     1  UNL1        0.0616
      9 C          -3.6847   56.5426   76.4574 C.2     1  UNL1        0.1506
     10 O          -3.4673   55.9185   75.4291 O.2     1  UNL1       -0.2961
     11 C          -4.7376   56.0920   77.4405 C.3     1  UNL1        0.0646
     12 C          -5.3733   57.2461   78.3092 C.3     1  UNL1        0.0105
     13 C          -4.6421   57.3227   79.6558 C.3     1  UNL1        0.0006
     14 C          -6.9293   56.8968   78.3613 C.3     1  UNL1        0.0420
     15 C          -7.4830   57.6473   77.1052 C.3     1  UNL1        0.1118
     16 O          -7.9822   56.7285   76.1392 O.3     1  UNL1       -0.3844
     17 C          -6.3132   58.3997   76.4445 C.3     1  UNL1        0.0293
     18 C          -5.2810   58.6419   77.5715 C.3     1  UNL1        0.0033
     19 C          -5.8475   59.8199   78.4077 C.3     1  UNL1        0.0001
     20 C          -3.8227   58.9727   76.9657 C.3     1  UNL1        0.0073
     21 C          -3.0961   60.2369   77.5310 C.3     1  UNL1        0.0008
     22 C          -1.7405   60.1044   78.2532 C.3     1  UNL1        0.0042
     23 C          -0.5368   59.8926   77.3032 C.3     1  UNL1        0.0233
     24 C           0.8655   60.3395   77.8630 C.3     1  UNL1        0.0649
     25 C           1.8408   60.4843   76.6547 C.3     1  UNL1        0.0060
     26 C           0.8444   61.6668   78.6231 C.3     1  UNL1        0.2087
     27 O           2.1394   61.9923   79.1460 O.2     1  UNL1       -0.4635
     28 H          -8.8492   56.4300   76.4596 H       1  UNL1        0.2103
     29 C           4.1814   61.4443   80.2576 C.3     1  UNL1        0.0758
     30 C           5.2945   60.4485   79.9315 C.3     1  UNL1        0.0097
     31 C           4.0548   63.9461   80.7598 C.3     1  UNL1        0.0005
     32 C           4.5668   62.8639   79.8185 C.3     1  UNL1        0.0092
     33 C          -7.7886   57.1423   79.6674 C.3     1  UNL1        0.0599
     34 C          -8.1472   55.8329   80.4049 C.3     1  UNL1        0.0174
     35 N          -9.0232   57.9428   79.3812 N.3     1  UNL1       -0.2715
     36 C          -9.0921   59.1842   80.1674 C.3     1  UNL1        0.0896
     37 C         -10.2852   57.2143   79.5437 C.3     1  UNL1        0.0896
@<TRIPOS>BOND
     1    31    32    1
     2    29    30    1
     3    29     1    1
     4    29    32    1
     5     1     2    2
     6     1    27    1
     7     2     3    1
     8     3     4    1
     9     3    24    1
    10     4     5    1
    11     5     6    2
    12     6     7    1
    13     6    23    1
    14     7     8    1
    15     8     9    1
    16     8    20    1
    17     9    10    2
    18     9    11    1
    19    11    12    1
    20    12    13    1
    21    12    14    1
    22    12    18    1
    23    14    15    1
    24    33    34    1
    25    33    35    1
    26    33    14    1
    27    35    36    1
    28    35    37    1
    29    15    16    1
    30    15    17    1
    31    16    28    1
    32    17    18    1
    33    18    19    1
    34    18    20    1
    35    20    21    1
    36    21    22    1
    37    22    23    1
    38    23    24    1
    39    24    25    1
    40    24    26    1
    41    26    27    1



#	Name:			CHEMBL393621
#	Creating user name:	trannguyen
#	Creation time:		Thu Dec  1 16:45:11 2022


#	Modifying user name:	trannguyen
#	Modification time:	Thu Dec  1 16:45:11 2022

@<TRIPOS>MOLECULE
CHEMBL393621
 36 40 0 0 0
SMALL
GASTEIGER

@<TRIPOS>ATOM
      1 C           3.7531   61.2483   79.0220 C.2     1  UNL1        0.1951
      2 N           2.7228   62.0059   78.9376 N.2     1  UNL1       -0.2432
      3 C           1.5493   61.5868   78.1581 C.3     1  UNL1        0.1140
      4 C           0.2834   62.0839   78.8689 C.3     1  UNL1        0.0499
      5 C          -0.9495   61.6437   78.1366 C.2     1  UNL1       -0.0326
      6 C          -1.0383   60.4065   77.6191 C.2     1  UNL1       -0.0481
      7 C          -2.2971   59.9032   76.9446 C.3     1  UNL1        0.0290
      8 C          -2.4935   58.3773   76.9882 C.3     1  UNL1        0.0616
      9 C          -3.6680   57.9389   76.1389 C.2     1  UNL1        0.1506
     10 O          -4.1460   58.6218   75.2318 O.2     1  UNL1       -0.2961
     11 C          -4.1465   56.5388   76.4138 C.3     1  UNL1        0.0646
     12 C          -4.8693   56.5182   77.7650 C.3     1  UNL1        0.0105
     13 C          -6.2736   57.1461   77.4882 C.3     1  UNL1        0.0006
     14 C          -5.1452   55.0746   78.3738 C.3     1  UNL1        0.0420
     15 C          -5.0521   55.3195   79.8961 C.3     1  UNL1        0.1118
     16 O          -6.2540   55.8995   80.3936 O.3     1  UNL1       -0.3844
     17 C          -3.9163   56.3137   80.0584 C.3     1  UNL1        0.0293
     18 C          -4.0195   57.3161   78.8722 C.3     1  UNL1        0.0033
     19 C          -4.7403   58.5946   79.3701 C.3     1  UNL1        0.0001
     20 C          -2.5431   57.6844   78.3855 C.3     1  UNL1        0.0073
     21 C          -1.7116   58.3961   79.4839 C.3     1  UNL1        0.0008
     22 C          -0.2248   58.6565   79.1730 C.3     1  UNL1        0.0042
     23 C           0.0886   59.4238   77.8645 C.3     1  UNL1        0.0233
     24 C           1.5195   60.0827   77.7738 C.3     1  UNL1        0.0649
     25 C           1.9761   60.0000   76.2841 C.3     1  UNL1        0.0060
     26 C           2.5483   59.3202   78.6081 C.3     1  UNL1        0.2087
     27 O           3.8132   59.9722   78.5888 O.2     1  UNL1       -0.4635
     28 H          -6.9355   55.2062   80.3595 H       1  UNL1        0.2103
     29 C           4.6762   62.7498   80.7598 C.3     1  UNL1        0.0097
     30 C           5.0246   61.7152   79.6948 C.3     1  UNL1        0.0758
     31 C           5.8270   60.5593   80.2858 C.3     1  UNL1        0.0097
     32 C          -4.2629   53.8459   77.9329 C.3     1  UNL1        0.0599
     33 C          -5.0484   52.5170   77.9113 C.3     1  UNL1        0.0174
     34 N          -3.0460   53.7391   78.7880 N.3     1  UNL1       -0.2715
     35 C          -1.8048   54.0567   78.0772 C.3     1  UNL1        0.0896
     36 C          -2.9096   52.4646   79.4979 C.3     1  UNL1        0.0896
@<TRIPOS>BOND
     1    29    30    1
     2    30    31    1
     3    30     1    1
     4     1     2    2
     5     1    27    1
     6     2     3    1
     7     3     4    1
     8     3    24    1
     9     4     5    1
    10     5     6    2
    11     6     7    1
    12     6    23    1
    13     7     8    1
    14     8     9    1
    15     8    20    1
    16     9    10    2
    17     9    11    1
    18    11    12    1
    19    12    13    1
    20    12    14    1
    21    12    18    1
    22    14    15    1
    23    32    33    1
    24    32    34    1
    25    32    14    1
    26    34    35    1
    27    34    36    1
    28    15    16    1
    29    15    17    1
    30    16    28    1
    31    17    18    1
    32    18    19    1
    33    18    20    1
    34    20    21    1
    35    21    22    1
    36    22    23    1
    37    23    24    1
    38    24    25    1
    39    24    26    1
    40    26    27    1



#	Name:			CHEMBL394901
#	Creating user name:	trannguyen
#	Creation time:		Thu Dec  1 16:45:11 2022


#	Modifying user name:	trannguyen
#	Modification time:	Thu Dec  1 16:45:11 2022

@<TRIPOS>MOLECULE
CHEMBL394901
 20 20 0 0 0
SMALL
GASTEIGER

@<TRIPOS>ATOM
      1 N           3.2972   65.9192   65.1745 N.am    1  UNL1       -0.2937
      2 C           2.1050   66.5964   65.2766 C.2     1  UNL1        0.2674
      3 O           1.0440   66.1521   64.8484 O.2     1  UNL1       -0.2711
      4 H           4.1593   66.4287   65.3568 H       1  UNL1        0.1500
      5 C           3.3853   64.5875   64.5723 C.3     1  UNL1        0.1716
      6 C           3.7383   63.5633   65.6414 C.3     1  UNL1        0.0334
      7 C           4.3991   64.5653   63.4266 C.2     1  UNL1        0.3351
      8 O           5.3893   63.8336   63.3818 O.2     1  UNL1       -0.2483
      9 C           4.7097   66.7210   62.5292 C.3     1  UNL1        0.2557
     10 O           4.0415   65.4585   62.4598 O.3     1  UNL1       -0.4433
     11 C           2.1780   67.9423   66.0131 C.3     1  UNL1        0.2893
     12 O           2.9339   68.9716   65.3780 O.3     1  UNL1       -0.4656
     13 C           3.9365   69.5134   66.1398 C.ar    1  UNL1        0.1393
     14 C           5.2503   69.6701   65.6932 C.ar    1  UNL1        0.0370
     15 C           6.2157   70.2444   66.5151 C.ar    1  UNL1        0.0064
     16 C           5.8720   70.6528   67.8012 C.ar    1  UNL1        0.0424
     17 C           4.5718   70.4668   68.2786 C.ar    1  UNL1        0.0064
     18 C           3.6045   69.8908   67.4455 C.ar    1  UNL1        0.0370
     19 C           6.9125   71.2881   68.6324 C.2     1  UNL1        0.2342
     20 O           7.5592   70.6674   69.4620 O.2     1  UNL1       -0.2831
@<TRIPOS>BOND
     1     9    10    1
     2    10     7    1
     3     7     8    2
     4     7     5    1
     5     5     6    1
     6     5     1    1
     7     1     2   am
     8     1     4    1
     9     2     3    2
    10     2    11    1
    11    11    12    1
    12    12    13    1
    13    13    14   ar
    14    13    18   ar
    15    14    15   ar
    16    15    16   ar
    17    16    19    1
    18    16    17   ar
    19    19    20    2
    20    17    18   ar



#	Name:			CHEMBL396190
#	Creating user name:	trannguyen
#	Creation time:		Thu Dec  1 16:45:11 2022


#	Modifying user name:	trannguyen
#	Modification time:	Thu Dec  1 16:45:11 2022

@<TRIPOS>MOLECULE
CHEMBL396190
 41 45 0 0 0
SMALL
GASTEIGER

@<TRIPOS>ATOM
      1 C           2.6609   60.1321   70.7647 C.2     1  UNL1        0.1951
      2 N           2.2754   60.7930   71.7954 N.2     1  UNL1       -0.2432
      3 C           1.7696   60.0616   72.9611 C.3     1  UNL1        0.1140
      4 C           2.0865   60.8852   74.2144 C.3     1  UNL1        0.0499
      5 C           1.8769   60.1077   75.4751 C.2     1  UNL1       -0.0326
      6 C           1.6448   58.7795   75.5221 C.2     1  UNL1       -0.0481
      7 C           1.0894   58.1973   76.8040 C.3     1  UNL1        0.0290
      8 C          -0.3963   58.5788   76.8044 C.3     1  UNL1        0.0616
      9 C          -0.9773   58.9556   78.1337 C.2     1  UNL1        0.1506
     10 O          -0.4037   58.7653   79.2021 O.2     1  UNL1       -0.2961
     11 C          -2.2964   59.7088   78.0429 C.3     1  UNL1        0.0646
     12 C          -3.2490   59.2091   76.8692 C.3     1  UNL1        0.0117
     13 C          -3.1112   60.2165   75.7231 C.3     1  UNL1        0.0006
     14 C          -4.7155   59.0594   77.5042 C.3     1  UNL1        0.0552
     15 C          -4.6487   57.6127   78.1179 C.3     1  UNL1        0.1700
     16 C          -3.2850   56.9783   77.6983 C.3     1  UNL1        0.0437
     17 C          -2.8455   57.7466   76.4165 C.3     1  UNL1        0.0044
     18 C          -3.6793   57.1234   75.2695 C.3     1  UNL1        0.0001
     19 C          -1.2947   57.5848   76.0448 C.3     1  UNL1        0.0074
     20 C          -0.9551   57.7198   74.5062 C.3     1  UNL1        0.0008
     21 C           0.3828   57.0934   74.0698 C.3     1  UNL1        0.0042
     22 C           1.7038   57.8766   74.2982 C.3     1  UNL1        0.0233
     23 C           2.3369   58.6349   73.0601 C.3     1  UNL1        0.0649
     24 C           3.8833   58.6502   73.2734 C.3     1  UNL1        0.0060
     25 C           2.0454   58.0165   71.6916 C.3     1  UNL1        0.2087
     26 O           2.6353   58.7846   70.6300 O.2     1  UNL1       -0.4635
     27 C           3.9239   59.8163   68.6365 C.3     1  UNL1        0.0097
     28 C           3.2571   60.8304   69.5617 C.3     1  UNL1        0.0758
     29 C           2.1931   61.6373   68.8287 C.3     1  UNL1        0.0097
     30 C          -6.0178   59.2857   76.6014 C.3     1  UNL1        0.0611
     31 C          -5.7103   59.7846   75.1757 C.3     1  UNL1        0.0175
     32 N          -7.0724   60.1522   77.2290 N.3     1  UNL1       -0.2715
     33 C          -8.4165   59.5669   77.3382 C.3     1  UNL1        0.0896
     34 C          -6.6757   60.5904   78.5818 C.3     1  UNL1        0.0896
     35 O          -4.6977   57.7173   79.5583 O.3     1  UNL1       -0.4522
     36 C          -5.9351   57.6856   80.1408 C.2     1  UNL1        0.3158
     37 O          -6.4349   58.6077   80.7511 O.2     1  UNL1       -0.2501
     38 C          -6.5976   56.3016   79.9867 C.3     1  UNL1        0.0896
     39 C          -7.9254   56.3109   80.7539 C.3     1  UNL1        0.0111
     40 C          -6.8857   56.0476   78.4968 C.3     1  UNL1        0.0111
     41 C          -5.7001   55.1703   80.5084 C.3     1  UNL1        0.0111
@<TRIPOS>BOND
     1    27    28    1
     2    28    29    1
     3    28     1    1
     4     1     2    2
     5     1    26    1
     6     2     3    1
     7     3     4    1
     8     3    23    1
     9     4     5    1
    10     5     6    2
    11     6     7    1
    12     6    22    1
    13     7     8    1
    14     8     9    1
    15     8    19    1
    16     9    10    2
    17     9    11    1
    18    11    12    1
    19    12    13    1
    20    12    14    1
    21    12    17    1
    22    14    15    1
    23    30    31    1
    24    30    32    1
    25    30    14    1
    26    32    33    1
    27    32    34    1
    28    15    35    1
    29    15    16    1
    30    35    36    1
    31    36    37    2
    32    36    38    1
    33    38    39    1
    34    38    40    1
    35    38    41    1
    36    16    17    1
    37    17    18    1
    38    17    19    1
    39    19    20    1
    40    20    21    1
    41    21    22    1
    42    22    23    1
    43    23    24    1
    44    23    25    1
    45    25    26    1



#	Name:			CHEMBL4074267
#	Creating user name:	trannguyen
#	Creation time:		Thu Dec  1 16:45:11 2022


#	Modifying user name:	trannguyen
#	Modification time:	Thu Dec  1 16:45:11 2022

@<TRIPOS>MOLECULE
CHEMBL4074267
 37 40 0 0 0
SMALL
GASTEIGER

@<TRIPOS>ATOM
      1 C          -7.5480   62.1196   76.6993 C.3     1  UNL1        0.0230
      2 C          -7.9572   60.8518   75.9501 C.3     1  UNL1        0.0898
      3 C          -5.8657   59.5489   75.6204 C.2     1  UNL1        0.2486
      4 O          -5.5346   60.2291   74.6688 O.2     1  UNL1       -0.2700
      5 N          -7.0630   59.7562   76.2861 N.am    1  UNL1       -0.3008
      6 H          -7.1761   59.3017   77.1819 H       1  UNL1        0.1497
      7 C          -4.9847   58.4114   76.1510 C.2     1  UNL1        0.0880
      8 C          -3.7835   58.3234   75.5240 C.2     1  UNL1        0.0074
      9 C          -2.6672   57.3879   75.7287 C.ar    1  UNL1        0.0004
     10 C          -1.5180   57.7978   76.4216 C.ar    1  UNL1        0.0031
     11 C          -0.4290   56.9311   76.5717 C.ar    1  UNL1        0.0366
     12 C          -0.5186   55.6320   76.0853 C.ar    1  UNL1        0.1337
     13 O           0.5166   54.7532   76.2043 O.3     1  UNL1       -0.5055
     14 C          -1.6795   55.1873   75.4629 C.ar    1  UNL1        0.0366
     15 C          -2.7529   56.0657   75.2787 C.ar    1  UNL1        0.0031
     16 H           1.2326   55.1736   76.7090 H       1  UNL1        0.2922
     17 C          -4.7382   57.3618   78.5547 C.3     1  UNL1        0.0774
     18 C          -5.4757   57.5322   77.2601 C.2     1  UNL1        0.1779
     19 O          -6.5293   56.9031   77.1041 O.2     1  UNL1       -0.2912
     20 C          -8.0893   62.1762   78.1335 C.3     1  UNL1        0.0229
     21 C          -7.1341   61.4789   79.1105 C.3     1  UNL1        0.0871
     22 N          -6.1574   62.3998   79.6665 N.pl3   1  UNL1       -0.3328
     23 H          -6.4848   62.9431   80.4604 H       1  UNL1        0.1468
     24 C          -4.9708   62.8729   79.1011 C.ar    1  UNL1        0.0431
     25 C          -4.9469   64.2495   78.7313 C.ar    1  UNL1        0.0045
     26 C          -3.7947   64.7564   78.1269 C.ar    1  UNL1        0.0561
     27 N          -2.6832   64.0198   77.9331 N.ar    1  UNL1       -0.2499
     28 C          -2.6648   62.7502   78.3410 C.ar    1  UNL1        0.0820
     29 C          -1.4641   62.0743   78.1625 C.ar    1  UNL1        0.0191
     30 C          -1.2836   60.7533   78.5631 C.ar    1  UNL1        0.0015
     31 C          -2.3443   60.0758   79.1258 C.ar    1  UNL1        0.0001
     32 C          -3.5673   60.7312   79.2795 C.ar    1  UNL1        0.0027
     33 C          -3.7702   62.0984   78.9315 C.ar    1  UNL1        0.0305
     34 C          -3.6589   66.2013   77.7246 C.3     1  UNL1        0.0455
     35 C          -4.9934   66.9160   77.5782 C.3     1  UNL1        0.0066
     36 C          -5.8312   66.6668   78.8211 C.3     1  UNL1        0.0052
     37 C          -6.1271   65.1708   78.9904 C.3     1  UNL1        0.0288
@<TRIPOS>BOND
     1    17    18    1
     2    18    19    2
     3    18     7    1
     4     7     8    2
     5     7     3    1
     6     8     9    1
     7     9    10   ar
     8     9    15   ar
     9    10    11   ar
    10    11    12   ar
    11    12    13    1
    12    12    14   ar
    13    13    16    1
    14    14    15   ar
    15     3     4    2
    16     3     5   am
    17     5     2    1
    18     5     6    1
    19     2     1    1
    20     1    20    1
    21    20    21    1
    22    21    22    1
    23    22    24    1
    24    22    23    1
    25    24    25   ar
    26    24    33   ar
    27    25    26   ar
    28    25    37    1
    29    26    27   ar
    30    26    34    1
    31    27    28   ar
    32    28    29   ar
    33    28    33   ar
    34    29    30   ar
    35    30    31   ar
    36    31    32   ar
    37    32    33   ar
    38    34    35    1
    39    35    36    1
    40    36    37    1



#	Name:			CHEMBL4078137
#	Creating user name:	trannguyen
#	Creation time:		Thu Dec  1 16:45:11 2022


#	Modifying user name:	trannguyen
#	Modification time:	Thu Dec  1 16:45:11 2022

@<TRIPOS>MOLECULE
CHEMBL4078137
 39 42 0 0 0
SMALL
GASTEIGER

@<TRIPOS>ATOM
      1 C          -0.5166   54.6423   79.7086 C.3     1  UNL1        0.0018
      2 C           0.0602   53.8934   78.5060 C.3     1  UNL1        0.0212
      3 C           0.8927   54.8283   77.6347 C.3     1  UNL1        0.0894
      4 C           1.3903   57.2473   77.4593 C.2     1  UNL1        0.2294
      5 O           1.7685   57.1422   76.2793 O.2     1  UNL1       -0.2746
      6 N           0.9652   56.1670   78.1873 N.am    1  UNL1       -0.3040
      7 H           0.7044   56.2882   79.1612 H       1  UNL1        0.1494
      8 C           1.3826   58.5643   78.1990 C.3     1  UNL1        0.1380
      9 C           3.5137   59.8842   78.8787 C.3     1  UNL1        0.0728
     10 C           2.6078   58.6943   79.1077 C.2     1  UNL1        0.1597
     11 O           2.8588   57.8875   80.0012 O.2     1  UNL1       -0.2955
     12 C           1.3209   59.7509   77.2198 C.3     1  UNL1        0.0429
     13 C           0.3716   60.8790   77.5834 C.ar    1  UNL1       -0.0211
     14 C          -0.0026   61.8475   76.6393 C.ar    1  UNL1       -0.0011
     15 C          -0.9100   62.8606   76.9714 C.ar    1  UNL1        0.0363
     16 C          -1.4635   62.8977   78.2462 C.ar    1  UNL1        0.1337
     17 O          -2.3583   63.8603   78.6091 O.3     1  UNL1       -0.5055
     18 C          -1.1211   61.9410   79.1918 C.ar    1  UNL1        0.0363
     19 C          -0.2030   60.9377   78.8646 C.ar    1  UNL1       -0.0011
     20 H          -2.4994   64.4605   77.8592 H       1  UNL1        0.2922
     21 C          -1.8020   54.0327   80.2403 C.3     1  UNL1        0.0018
     22 C          -2.9535   55.0341   80.2302 C.3     1  UNL1        0.0212
     23 C          -4.2339   54.3938   79.7351 C.3     1  UNL1        0.0870
     24 N          -4.6947   54.9460   78.4632 N.pl3   1  UNL1       -0.3328
     25 H          -5.4312   55.6309   78.5638 H       1  UNL1        0.1468
     26 C          -3.7678   55.2626   77.4378 C.ar    1  UNL1        0.0431
     27 C          -3.2943   56.5862   77.2342 C.ar    1  UNL1        0.0045
     28 C          -2.3568   56.7942   76.2190 C.ar    1  UNL1        0.0561
     29 N          -1.7982   55.7984   75.5017 N.ar    1  UNL1       -0.2499
     30 C          -2.1951   54.5456   75.7128 C.ar    1  UNL1        0.0820
     31 C          -1.5626   53.5739   74.9482 C.ar    1  UNL1        0.0191
     32 C          -1.8982   52.2270   75.0355 C.ar    1  UNL1        0.0015
     33 C          -2.9192   51.8462   75.8889 C.ar    1  UNL1        0.0001
     34 C          -3.5694   52.8132   76.6706 C.ar    1  UNL1        0.0027
     35 C          -3.2026   54.1941   76.6373 C.ar    1  UNL1        0.0305
     36 C          -1.8559   58.1686   75.8609 C.3     1  UNL1        0.0455
     37 C          -2.7829   59.2816   76.3253 C.3     1  UNL1        0.0066
     38 C          -3.0533   59.0977   77.8047 C.3     1  UNL1        0.0052
     39 C          -3.7741   57.7779   78.0344 C.3     1  UNL1        0.0288
@<TRIPOS>BOND
     1     9    10    1
     2    10    11    2
     3    10     8    1
     4     8    12    1
     5     8     4    1
     6    12    13    1
     7    13    14   ar
     8    13    19   ar
     9    14    15   ar
    10    15    16   ar
    11    16    17    1
    12    16    18   ar
    13    17    20    1
    14    18    19   ar
    15     4     5    2
    16     4     6   am
    17     6     3    1
    18     6     7    1
    19     3     2    1
    20     2     1    1
    21     1    21    1
    22    21    22    1
    23    22    23    1
    24    23    24    1
    25    24    26    1
    26    24    25    1
    27    26    27   ar
    28    26    35   ar
    29    27    28   ar
    30    27    39    1
    31    28    29   ar
    32    28    36    1
    33    29    30   ar
    34    30    31   ar
    35    30    35   ar
    36    31    32   ar
    37    32    33   ar
    38    33    34   ar
    39    34    35   ar
    40    36    37    1
    41    37    38    1
    42    38    39    1



#	Name:			CHEMBL4082185
#	Creating user name:	trannguyen
#	Creation time:		Thu Dec  1 16:45:11 2022


#	Modifying user name:	trannguyen
#	Modification time:	Thu Dec  1 16:45:11 2022

@<TRIPOS>MOLECULE
CHEMBL4082185
 39 42 0 0 0
SMALL
GASTEIGER

@<TRIPOS>ATOM
      1 C           1.6990   60.7538   76.8741 C.3     1  UNL1        0.0018
      2 C           2.5701   60.5691   75.6211 C.3     1  UNL1        0.0213
      3 C           2.2349   59.3444   74.7546 C.3     1  UNL1        0.0897
      4 C           0.6695   57.7502   75.9150 C.2     1  UNL1        0.2486
      5 O           1.6038   57.1698   76.5025 O.2     1  UNL1       -0.2700
      6 N           0.9132   58.7880   75.0498 N.am    1  UNL1       -0.3008
      7 H           0.1065   59.1891   74.5647 H       1  UNL1        0.1497
      8 C          -0.7973   57.3353   76.1512 C.2     1  UNL1        0.0880
      9 C          -1.6688   58.3707   76.2623 C.2     1  UNL1        0.0074
     10 C          -3.1386   58.5239   76.4125 C.ar    1  UNL1        0.0004
     11 C          -3.9156   58.9149   75.3089 C.ar    1  UNL1        0.0031
     12 C          -5.2440   59.3454   75.4686 C.ar    1  UNL1        0.0366
     13 C          -5.8012   59.4003   76.7394 C.ar    1  UNL1        0.1337
     14 O          -7.0505   59.9069   76.9485 O.3     1  UNL1       -0.5055
     15 C          -5.0723   58.9697   77.8410 C.ar    1  UNL1        0.0366
     16 C          -3.7450   58.5327   77.6798 C.ar    1  UNL1        0.0031
     17 H          -7.3496   60.3540   76.1384 H       1  UNL1        0.2922
     18 C          -2.3831   55.3430   75.5112 C.3     1  UNL1        0.0774
     19 C          -1.1589   55.8745   76.2138 C.2     1  UNL1        0.1779
     20 O          -0.4428   55.0878   76.8399 O.2     1  UNL1       -0.2912
     21 C           0.5087   61.7259   76.7879 C.3     1  UNL1        0.0018
     22 C          -0.4814   61.6706   77.9588 C.3     1  UNL1        0.0212
     23 C           0.0410   62.3470   79.2417 C.3     1  UNL1        0.0870
     24 N           0.4546   61.4367   80.3116 N.pl3   1  UNL1       -0.3328
     25 H          -0.2060   61.4147   81.0770 H       1  UNL1        0.1468
     26 C           1.3234   60.3411   80.2386 C.ar    1  UNL1        0.0431
     27 C           0.8795   59.0012   80.1617 C.ar    1  UNL1        0.0045
     28 C           1.8319   57.9792   80.2820 C.ar    1  UNL1        0.0561
     29 N           3.1594   58.1938   80.3220 N.ar    1  UNL1       -0.2499
     30 C           3.6021   59.4429   80.2347 C.ar    1  UNL1        0.0820
     31 C           4.9783   59.5913   80.1436 C.ar    1  UNL1        0.0191
     32 C           5.5752   60.8396   80.0096 C.ar    1  UNL1        0.0015
     33 C           4.7753   61.9696   79.9994 C.ar    1  UNL1        0.0001
     34 C           3.3858   61.8401   80.1149 C.ar    1  UNL1        0.0027
     35 C           2.7491   60.5703   80.2081 C.ar    1  UNL1        0.0305
     36 C           1.4470   56.5257   80.3153 C.3     1  UNL1        0.0455
     37 C          -0.0080   56.3438   80.7101 C.3     1  UNL1        0.0066
     38 C          -0.8660   57.1344   79.7391 C.3     1  UNL1        0.0052
     39 C          -0.5423   58.6301   79.8015 C.3     1  UNL1        0.0288
@<TRIPOS>BOND
     1    18    19    1
     2    19    20    2
     3    19     8    1
     4     8     9    2
     5     8     4    1
     6     9    10    1
     7    10    11   ar
     8    10    16   ar
     9    11    12   ar
    10    12    13   ar
    11    13    14    1
    12    13    15   ar
    13    14    17    1
    14    15    16   ar
    15     4     5    2
    16     4     6   am
    17     6     3    1
    18     6     7    1
    19     3     2    1
    20     2     1    1
    21     1    21    1
    22    21    22    1
    23    22    23    1
    24    23    24    1
    25    24    26    1
    26    24    25    1
    27    26    27   ar
    28    26    35   ar
    29    27    28   ar
    30    27    39    1
    31    28    29   ar
    32    28    36    1
    33    29    30   ar
    34    30    31   ar
    35    30    35   ar
    36    31    32   ar
    37    32    33   ar
    38    33    34   ar
    39    34    35   ar
    40    36    37    1
    41    37    38    1
    42    38    39    1



#	Name:			CHEMBL4083801
#	Creating user name:	trannguyen
#	Creation time:		Thu Dec  1 16:45:11 2022


#	Modifying user name:	trannguyen
#	Modification time:	Thu Dec  1 16:45:11 2022

@<TRIPOS>MOLECULE
CHEMBL4083801
 41 44 0 0 0
SMALL
GASTEIGER

@<TRIPOS>ATOM
      1 C          -0.0210   53.9393   77.6801 C.3     1  UNL1        0.0212
      2 C           1.3343   54.5993   77.9344 C.3     1  UNL1        0.0894
      3 C           1.4449   57.0379   77.4948 C.2     1  UNL1        0.2294
      4 O           1.8194   56.8982   76.3463 O.2     1  UNL1       -0.2746
      5 N           1.1537   55.9803   78.3424 N.am    1  UNL1       -0.3040
      6 H           0.8410   56.1533   79.2852 H       1  UNL1        0.1494
      7 C           1.1989   58.4010   78.1301 C.3     1  UNL1        0.1380
      8 C           2.4595   58.8961   78.8279 C.2     1  UNL1        0.1597
      9 C           2.9232   60.2993   78.5143 C.3     1  UNL1        0.0728
     10 O           3.0748   58.2183   79.6547 O.2     1  UNL1       -0.2955
     11 C           0.0265   58.3340   79.1202 C.3     1  UNL1        0.0430
     12 C          -2.1501   61.2062   77.7829 C.ar    1  UNL1        0.1718
     13 C          -1.0515   60.3571   77.9962 C.ar    1  UNL1        0.0358
     14 C          -1.1680   59.2050   78.7891 C.ar    1  UNL1       -0.0181
     15 C          -2.4207   58.8898   79.3310 C.ar    1  UNL1       -0.0009
     16 C          -3.5259   59.7097   79.1003 C.ar    1  UNL1        0.0395
     17 C          -3.3898   60.8685   78.3368 C.ar    1  UNL1        0.1677
     18 O          -4.4955   61.6474   78.1347 O.3     1  UNL1       -0.5029
     19 H          -5.2287   61.3029   78.6696 H       1  UNL1        0.2923
     20 C          -0.5094   62.4530   76.6183 C.3     1  UNL1        0.2526
     21 O          -1.8721   62.3044   77.0087 O.3     1  UNL1       -0.4684
     22 C          -0.7114   53.4264   78.9478 C.3     1  UNL1        0.0018
     23 C          -2.1591   53.9098   79.0747 C.3     1  UNL1        0.0018
     24 C          -3.1576   52.9155   78.4706 C.3     1  UNL1        0.0212
     25 C          -4.4855   53.5979   78.1308 C.3     1  UNL1        0.0870
     26 N          -4.4442   55.0158   78.4585 N.pl3   1  UNL1       -0.3328
     27 H          -4.2712   55.2131   79.4402 H       1  UNL1        0.1468
     28 C          -4.8911   56.1294   77.7420 C.ar    1  UNL1        0.0431
     29 C          -6.2020   56.6584   77.8155 C.ar    1  UNL1        0.0045
     30 C          -6.5071   57.7686   77.0130 C.ar    1  UNL1        0.0561
     31 N          -5.6171   58.3885   76.2109 N.ar    1  UNL1       -0.2499
     32 C          -4.3774   57.9127   76.1406 C.ar    1  UNL1        0.0820
     33 C          -3.5033   58.5914   75.3014 C.ar    1  UNL1        0.0191
     34 C          -2.1796   58.1946   75.1365 C.ar    1  UNL1        0.0015
     35 C          -1.7257   57.0715   75.8084 C.ar    1  UNL1        0.0001
     36 C          -2.5974   56.3678   76.6507 C.ar    1  UNL1        0.0027
     37 C          -3.9441   56.7809   76.8637 C.ar    1  UNL1        0.0305
     38 C          -7.8746   58.4000   77.0105 C.3     1  UNL1        0.0455
     39 C          -8.9579   57.4101   77.4024 C.3     1  UNL1        0.0066
     40 C          -8.6153   56.8435   78.7669 C.3     1  UNL1        0.0052
     41 C          -7.2835   56.0922   78.7076 C.3     1  UNL1        0.0288
@<TRIPOS>BOND
     1    20    21    1
     2    21    12    1
     3    12    13   ar
     4    12    17   ar
     5    13    14   ar
     6    14    11    1
     7    14    15   ar
     8    11     7    1
     9     7     8    1
    10     7     3    1
    11     8     9    1
    12     8    10    2
    13     3     4    2
    14     3     5   am
    15     5     2    1
    16     5     6    1
    17     2     1    1
    18     1    22    1
    19    22    23    1
    20    23    24    1
    21    24    25    1
    22    25    26    1
    23    26    28    1
    24    26    27    1
    25    28    29   ar
    26    28    37   ar
    27    29    30   ar
    28    29    41    1
    29    30    31   ar
    30    30    38    1
    31    31    32   ar
    32    32    33   ar
    33    32    37   ar
    34    33    34   ar
    35    34    35   ar
    36    35    36   ar
    37    36    37   ar
    38    38    39    1
    39    39    40    1
    40    40    41    1
    41    15    16   ar
    42    16    17   ar
    43    17    18    1
    44    18    19    1



#	Name:			CHEMBL4084958
#	Creating user name:	trannguyen
#	Creation time:		Thu Dec  1 16:45:11 2022


#	Modifying user name:	trannguyen
#	Modification time:	Thu Dec  1 16:45:11 2022

@<TRIPOS>MOLECULE
CHEMBL4084958
 36 39 0 0 0
SMALL
GASTEIGER

@<TRIPOS>ATOM
      1 C           1.4401   66.8425   68.5739 C.3     1  UNL1        0.0912
      2 C           1.9552   66.2007   66.2298 C.2     1  UNL1        0.2294
      3 O           0.8064   66.4679   65.8442 O.2     1  UNL1       -0.2746
      4 N           2.3555   66.4203   67.5311 N.am    1  UNL1       -0.3039
      5 H           3.2607   66.0868   67.8498 H       1  UNL1        0.1494
      6 C           3.0075   65.6395   65.2702 C.3     1  UNL1        0.1380
      7 C           4.0770   63.3823   64.6424 C.3     1  UNL1        0.0728
      8 C           3.4920   64.2684   65.7087 C.2     1  UNL1        0.1597
      9 O           3.5722   63.9458   66.8948 O.2     1  UNL1       -0.2955
     10 C           2.4478   65.6148   63.8376 C.3     1  UNL1        0.0429
     11 C           2.9685   66.7214   62.9409 C.ar    1  UNL1       -0.0211
     12 C           4.3067   66.7399   62.5246 C.ar    1  UNL1       -0.0011
     13 C           4.7872   67.7795   61.7205 C.ar    1  UNL1        0.0363
     14 C           3.9249   68.7941   61.3172 C.ar    1  UNL1        0.1337
     15 O           4.3549   69.8308   60.5433 O.3     1  UNL1       -0.5055
     16 C           2.5919   68.7830   61.6999 C.ar    1  UNL1        0.0363
     17 C           2.1179   67.7549   62.5159 C.ar    1  UNL1       -0.0011
     18 H           5.3082   69.7283   60.3907 H       1  UNL1        0.2922
     19 C           2.1019   67.8462   69.5256 C.3     1  UNL1        0.0424
     20 C           2.1545   69.2363   68.8933 C.3     1  UNL1        0.0888
     21 N           3.2894   70.0082   69.4020 N.pl3   1  UNL1       -0.3328
     22 H           2.9966   70.9333   69.7226 H       1  UNL1        0.1468
     23 C           4.5054   70.1651   68.6810 C.ar    1  UNL1        0.0431
     24 C           5.7754   70.3967   69.2681 C.ar    1  UNL1        0.0045
     25 C           6.8873   70.4797   68.4126 C.ar    1  UNL1        0.0561
     26 N           6.8248   70.2846   67.0789 N.ar    1  UNL1       -0.2499
     27 C           5.6471   70.0184   66.5209 C.ar    1  UNL1        0.0820
     28 C           5.6460   69.8036   65.1495 C.ar    1  UNL1        0.0191
     29 C           4.4764   69.5225   64.4494 C.ar    1  UNL1        0.0015
     30 C           3.2752   69.4641   65.1387 C.ar    1  UNL1        0.0001
     31 C           3.2587   69.6748   66.5235 C.ar    1  UNL1        0.0027
     32 C           4.4457   69.9463   67.2566 C.ar    1  UNL1        0.0305
     33 C           8.2888   70.7125   68.9175 C.3     1  UNL1        0.0455
     34 C           8.3450   71.3208   70.3081 C.3     1  UNL1        0.0066
     35 C           7.4418   70.5285   71.2317 C.3     1  UNL1        0.0052
     36 C           5.9950   70.5951   70.7488 C.3     1  UNL1        0.0288
@<TRIPOS>BOND
     1     7     8    1
     2     8     9    2
     3     8     6    1
     4     6    10    1
     5     6     2    1
     6    10    11    1
     7    11    12   ar
     8    11    17   ar
     9    12    13   ar
    10    13    14   ar
    11    14    15    1
    12    14    16   ar
    13    15    18    1
    14    16    17   ar
    15     2     3    2
    16     2     4   am
    17     4     1    1
    18     4     5    1
    19     1    19    1
    20    19    20    1
    21    20    21    1
    22    21    23    1
    23    21    22    1
    24    23    24   ar
    25    23    32   ar
    26    24    25   ar
    27    24    36    1
    28    25    26   ar
    29    25    33    1
    30    26    27   ar
    31    27    28   ar
    32    27    32   ar
    33    28    29   ar
    34    29    30   ar
    35    30    31   ar
    36    31    32   ar
    37    33    34    1
    38    34    35    1
    39    35    36    1



#	Name:			CHEMBL4105187
#	Creating user name:	trannguyen
#	Creation time:		Thu Dec  1 16:45:11 2022


#	Modifying user name:	trannguyen
#	Modification time:	Thu Dec  1 16:45:11 2022

@<TRIPOS>MOLECULE
CHEMBL4105187
 41 44 0 0 0
SMALL
GASTEIGER

@<TRIPOS>ATOM
      1 C          -0.4620   54.5235   76.6378 C.3     1  UNL1        0.0213
      2 C           0.6354   55.0134   77.6047 C.3     1  UNL1        0.0897
      3 C           1.2161   57.4089   77.2560 C.2     1  UNL1        0.2486
      4 O           1.9047   57.0957   76.2542 O.2     1  UNL1       -0.2700
      5 N           0.5527   56.4382   77.9500 N.am    1  UNL1       -0.3008
      6 H          -0.0941   56.7284   78.6888 H       1  UNL1        0.1497
      7 C          -0.0177   59.4619   77.3908 C.2     1  UNL1        0.0075
      8 C           1.1517   58.8648   77.7117 C.2     1  UNL1        0.0880
      9 C          -2.1902   62.3761   78.4904 C.ar    1  UNL1        0.1721
     10 C          -1.6043   61.0981   78.4259 C.ar    1  UNL1        0.0400
     11 C          -0.5400   60.8307   77.5490 C.ar    1  UNL1        0.0035
     12 C          -0.0666   61.8617   76.7288 C.ar    1  UNL1        0.0033
     13 C          -0.6347   63.1366   76.7946 C.ar    1  UNL1        0.0398
     14 C          -1.6663   63.3983   77.6939 C.ar    1  UNL1        0.1677
     15 O          -2.0990   64.6892   77.8043 O.3     1  UNL1       -0.5029
     16 H          -1.3656   65.2806   77.5669 H       1  UNL1        0.2923
     17 C          -4.4863   62.0428   78.9816 C.3     1  UNL1        0.2526
     18 O          -3.2045   62.5075   79.4052 O.3     1  UNL1       -0.4684
     19 C           2.2967   59.5351   78.4156 C.2     1  UNL1        0.1779
     20 C           2.3815   59.5629   79.9409 C.3     1  UNL1        0.0774
     21 O           3.1875   60.0676   77.7599 O.2     1  UNL1       -0.2912
     22 C          -1.2541   53.3074   77.1409 C.3     1  UNL1        0.0018
     23 C          -2.3387   53.6385   78.1781 C.3     1  UNL1        0.0018
     24 C          -3.7476   53.4506   77.5899 C.3     1  UNL1        0.0212
     25 C          -4.8697   53.9167   78.5234 C.3     1  UNL1        0.0870
     26 N          -4.8963   55.3686   78.6489 N.pl3   1  UNL1       -0.3328
     27 H          -4.1039   55.7347   79.1687 H       1  UNL1        0.1468
     28 C          -5.5386   56.3324   77.8551 C.ar    1  UNL1        0.0431
     29 C          -4.7116   57.1400   77.0029 C.ar    1  UNL1        0.0045
     30 C          -5.3099   58.1494   76.2349 C.ar    1  UNL1        0.0561
     31 N          -6.6303   58.4021   76.2597 N.ar    1  UNL1       -0.2499
     32 C          -7.4128   57.6823   77.0606 C.ar    1  UNL1        0.0820
     33 C          -8.7596   58.0195   77.0225 C.ar    1  UNL1        0.0191
     34 C          -9.7114   57.3743   77.8043 C.ar    1  UNL1        0.0015
     35 C          -9.3078   56.3480   78.6294 C.ar    1  UNL1        0.0001
     36 C          -7.9643   55.9683   78.6422 C.ar    1  UNL1        0.0027
     37 C          -6.9506   56.6319   77.8910 C.ar    1  UNL1        0.0305
     38 C          -4.5534   58.9710   75.2206 C.3     1  UNL1        0.0455
     39 C          -3.0539   59.0341   75.4561 C.3     1  UNL1        0.0066
     40 C          -2.5356   57.6316   75.7219 C.3     1  UNL1        0.0052
     41 C          -3.1967   57.0208   76.9657 C.3     1  UNL1        0.0288
@<TRIPOS>BOND
     1    17    18    1
     2    18     9    1
     3     9    10   ar
     4     9    14   ar
     5    10    11   ar
     6    11     7    1
     7    11    12   ar
     8     7     8    2
     9     8    19    1
    10     8     3    1
    11    19    20    1
    12    19    21    2
    13     3     4    2
    14     3     5   am
    15     5     2    1
    16     5     6    1
    17     2     1    1
    18     1    22    1
    19    22    23    1
    20    23    24    1
    21    24    25    1
    22    25    26    1
    23    26    28    1
    24    26    27    1
    25    28    29   ar
    26    28    37   ar
    27    29    30   ar
    28    29    41    1
    29    30    31   ar
    30    30    38    1
    31    31    32   ar
    32    32    33   ar
    33    32    37   ar
    34    33    34   ar
    35    34    35   ar
    36    35    36   ar
    37    36    37   ar
    38    38    39    1
    39    39    40    1
    40    40    41    1
    41    12    13   ar
    42    13    14   ar
    43    14    15    1
    44    15    16    1



#	Name:			CHEMBL413039
#	Creating user name:	trannguyen
#	Creation time:		Thu Dec  1 16:45:11 2022


#	Modifying user name:	trannguyen
#	Modification time:	Thu Dec  1 16:45:11 2022

@<TRIPOS>MOLECULE
CHEMBL413039
 40 44 0 0 0
SMALL
GASTEIGER

@<TRIPOS>ATOM
      1 C           0.3943   58.4455   76.7921 C.3     1  UNL1        0.1888
      2 C           1.4187   58.1292   77.9314 C.3     1  UNL1        0.1390
      3 C           0.9003   57.2215   79.0641 C.3     1  UNL1        0.1319
      4 O           0.2615   57.9865   80.0951 O.3     1  UNL1       -0.3827
      5 C          -0.0214   56.1180   78.5771 C.3     1  UNL1        0.0312
      6 C          -1.2229   56.5872   77.7079 C.3     1  UNL1        0.0058
      7 C          -1.9367   55.2711   77.2966 C.3     1  UNL1        0.0002
      8 C          -2.2040   57.5969   78.4217 C.3     1  UNL1        0.0002
      9 C          -2.8162   57.0679   79.7579 C.3     1  UNL1        0.0000
     10 C          -4.2852   56.6040   79.7563 C.3     1  UNL1        0.0000
     11 C          -5.2079   57.5098   78.9194 C.3     1  UNL1        0.0012
     12 C          -5.2606   58.9130   79.5628 C.3     1  UNL1        0.0000
     13 C          -4.5716   57.5037   77.4996 C.3     1  UNL1        0.0000
     14 C          -5.7129   57.9215   76.5923 C.3     1  UNL1        0.0000
     15 C          -6.8639   57.0669   77.1228 C.3     1  UNL1        0.0013
     16 C          -6.6421   56.9151   78.6609 C.3     1  UNL1        0.0147
     17 C          -3.2496   58.2832   77.4792 C.3     1  UNL1        0.0000
     18 C          -2.7162   58.6774   76.0950 C.3     1  UNL1        0.0001
     19 C          -1.7193   57.7106   75.4806 C.3     1  UNL1        0.0036
     20 C          -0.6073   57.2790   76.4612 C.3     1  UNL1        0.0420
     21 H           0.0121   57.3605   80.7985 H       1  UNL1        0.2104
     22 N           1.9564   59.3548   78.5596 N.am    1  UNL1       -0.2971
     23 C           3.2630   59.4987   78.9540 C.2     1  UNL1        0.2460
     24 O           4.0849   58.5804   78.8539 O.2     1  UNL1       -0.2701
     25 H           1.2598   60.0412   78.8321 H       1  UNL1        0.1499
     26 C           3.6681   60.8008   79.5738 C.ar    1  UNL1        0.0534
     27 C           2.7334   61.8435   79.5418 C.ar    1  UNL1        0.0045
     28 C           3.0623   63.1144   80.0149 C.ar    1  UNL1        0.0001
     29 C           4.3259   63.3507   80.5488 C.ar    1  UNL1        0.0000
     30 C           5.2482   62.3075   80.6423 C.ar    1  UNL1        0.0001
     31 C           4.9212   61.0297   80.1644 C.ar    1  UNL1        0.0045
     32 C          -7.8898   57.4239   79.4810 C.3     1  UNL1        0.0576
     33 C          -8.5690   56.2985   80.3020 C.3     1  UNL1        0.0173
     34 N          -8.9112   58.1799   78.6990 N.3     1  UNL1       -0.2716
     35 C         -10.2708   57.6590   78.9163 C.3     1  UNL1        0.0896
     36 C          -8.9228   59.6167   78.9807 C.3     1  UNL1        0.0896
     37 O           1.1379   58.6067   75.5423 O.3     1  UNL1       -0.4504
     38 C           2.6843   59.5578   74.0869 C.3     1  UNL1        0.1212
     39 C           1.7403   59.7848   75.2341 C.2     1  UNL1        0.3175
     40 O           1.5428   60.8639   75.7704 O.2     1  UNL1       -0.2501
@<TRIPOS>BOND
     1    38    39    1
     2    39    40    2
     3    39    37    1
     4    37     1    1
     5     1     2    1
     6     1    20    1
     7     2    22    1
     8     2     3    1
     9    22    23   am
    10    22    25    1
    11    23    24    2
    12    23    26    1
    13    26    27   ar
    14    26    31   ar
    15    27    28   ar
    16    28    29   ar
    17    29    30   ar
    18    30    31   ar
    19     3     4    1
    20     3     5    1
    21     4    21    1
    22     5     6    1
    23     6     7    1
    24     6     8    1
    25     6    20    1
    26     8     9    1
    27     8    17    1
    28     9    10    1
    29    10    11    1
    30    11    12    1
    31    11    13    1
    32    11    16    1
    33    13    14    1
    34    13    17    1
    35    14    15    1
    36    15    16    1
    37    16    32    1
    38    32    34    1
    39    32    33    1
    40    34    35    1
    41    34    36    1
    42    17    18    1
    43    18    19    1
    44    19    20    1



#	Name:			CHEMBL4159886
#	Creating user name:	trannguyen
#	Creation time:		Thu Dec  1 16:45:11 2022


#	Modifying user name:	trannguyen
#	Modification time:	Thu Dec  1 16:45:11 2022

@<TRIPOS>MOLECULE
CHEMBL4159886
 28 32 0 0 0
SMALL
GASTEIGER

@<TRIPOS>ATOM
      1 N          -2.9052   53.3907   76.5406 N.pl3   1  UNL1       -0.2988
      2 C          -3.4969   52.1850   76.3590 C.3     1  UNL1        0.1177
      3 C          -4.6307   51.8469   77.0797 C.2     1  UNL1       -0.0050
      4 C          -5.1761   52.7647   77.9667 C.2     1  UNL1       -0.0040
      5 C          -4.6003   54.0322   78.1061 C.2     1  UNL1        0.0147
      6 C          -3.4616   54.3181   77.3501 C.2     1  UNL1        0.0593
      7 C          -1.6587   53.7082   75.7998 C.3     1  UNL1        0.1177
      8 C           0.5089   54.5812   77.6728 C.3     1  UNL1        0.0308
      9 C          -0.2174   55.5691   76.7967 C.ar    1  UNL1       -0.0242
     10 C           0.1704   56.9208   76.8611 C.ar    1  UNL1       -0.0045
     11 C          -0.4843   57.8929   76.1100 C.ar    1  UNL1       -0.0003
     12 C          -1.5375   57.5290   75.2845 C.ar    1  UNL1       -0.0003
     13 C          -1.9203   56.1898   75.1901 C.ar    1  UNL1       -0.0029
     14 C          -1.2673   55.1803   75.9293 C.ar    1  UNL1       -0.0063
     15 C          -5.1977   55.0755   79.0163 C.3     1  UNL1        0.1336
     16 N          -6.1398   55.9439   78.3087 N.ar    1  UNL1       -0.3267
     17 C          -7.5025   55.7559   78.2229 C.ar    1  UNL1        0.0334
     18 C          -8.0304   56.7765   77.4545 C.ar    1  UNL1       -0.0091
     19 C          -6.9754   57.6667   77.1304 C.ar    1  UNL1        0.0129
     20 C          -6.9212   58.8933   76.4372 C.ar    1  UNL1        0.0012
     21 C          -5.7019   59.5616   76.3060 C.ar    1  UNL1        0.0001
     22 C          -4.5436   59.0219   76.8530 C.ar    1  UNL1        0.0015
     23 C          -4.5719   57.8072   77.5472 C.ar    1  UNL1        0.0172
     24 C          -5.8012   57.1363   77.6780 C.ar    1  UNL1        0.0596
     25 C          -9.4832   56.8859   77.1315 C.3     1  UNL1        0.0275
     26 C         -10.1989   55.5473   77.3706 C.3     1  UNL1        0.0051
     27 C          -9.8087   54.9365   78.7263 C.3     1  UNL1        0.0066
     28 C          -8.2980   54.6471   78.8326 C.3     1  UNL1        0.0435
@<TRIPOS>BOND
     1     8     9    1
     2     9    10   ar
     3     9    14   ar
     4    10    11   ar
     5    11    12   ar
     6    12    13   ar
     7    13    14   ar
     8    14     7    1
     9     7     1    1
    10     1     2    1
    11     1     6    1
    12     2     3    1
    13     3     4    2
    14     4     5    1
    15     5    15    1
    16     5     6    2
    17    15    16    1
    18    16    17   ar
    19    16    24   ar
    20    17    18   ar
    21    17    28    1
    22    18    19   ar
    23    18    25    1
    24    19    20   ar
    25    19    24   ar
    26    20    21   ar
    27    21    22   ar
    28    22    23   ar
    29    23    24   ar
    30    25    26    1
    31    26    27    1
    32    27    28    1



#	Name:			CHEMBL4161385
#	Creating user name:	trannguyen
#	Creation time:		Thu Dec  1 16:45:11 2022


#	Modifying user name:	trannguyen
#	Modification time:	Thu Dec  1 16:45:11 2022

@<TRIPOS>MOLECULE
CHEMBL4161385
 28 32 0 0 0
SMALL
GASTEIGER

@<TRIPOS>ATOM
      1 N          -5.1083   57.3727   77.1056 N.pl3   1  UNL1       -0.2988
      2 C          -5.7965   58.4484   76.6782 C.3     1  UNL1        0.1177
      3 C          -5.2776   59.2714   75.6870 C.2     1  UNL1       -0.0050
      4 C          -4.0357   58.9710   75.1348 C.2     1  UNL1       -0.0040
      5 C          -3.3177   57.8687   75.5920 C.2     1  UNL1        0.0147
      6 C          -3.8958   57.0752   76.5791 C.2     1  UNL1        0.0593
      7 C          -5.6865   56.4809   78.1374 C.3     1  UNL1        0.1188
      8 CL         -3.3551   57.2033   80.0817 Cl      1  UNL1       -0.0825
      9 C          -3.6873   55.6215   79.4707 C.ar    1  UNL1        0.0553
     10 C          -2.8599   54.5816   79.9128 C.ar    1  UNL1        0.0111
     11 C          -3.0724   53.2782   79.4714 C.ar    1  UNL1        0.0008
     12 C          -4.1071   53.0141   78.5828 C.ar    1  UNL1       -0.0002
     13 C          -4.9306   54.0504   78.1358 C.ar    1  UNL1       -0.0018
     14 C          -4.7363   55.3792   78.5640 C.ar    1  UNL1        0.0082
     15 C          -1.9292   57.5550   75.0870 C.3     1  UNL1        0.1336
     16 N          -1.1920   56.7653   76.0732 N.ar    1  UNL1       -0.3267
     17 C          -0.4169   57.2687   77.0940 C.ar    1  UNL1        0.0334
     18 C           0.1554   56.2061   77.7659 C.ar    1  UNL1       -0.0091
     19 C          -0.3174   55.0090   77.1672 C.ar    1  UNL1        0.0129
     20 C          -0.1063   53.6402   77.4313 C.ar    1  UNL1        0.0012
     21 C          -0.7298   52.6756   76.6349 C.ar    1  UNL1        0.0001
     22 C          -1.5542   53.0573   75.5833 C.ar    1  UNL1        0.0015
     23 C          -1.7822   54.4080   75.3029 C.ar    1  UNL1        0.0172
     24 C          -1.1561   55.3764   76.1086 C.ar    1  UNL1        0.0596
     25 C           1.0709   56.3819   78.9321 C.3     1  UNL1        0.0275
     26 C           1.5914   57.8269   79.0179 C.3     1  UNL1        0.0051
     27 C           0.4629   58.8496   78.8093 C.3     1  UNL1        0.0066
     28 C          -0.1907   58.7108   77.4235 C.3     1  UNL1        0.0435
@<TRIPOS>BOND
     1     8     9    1
     2     9    10   ar
     3     9    14   ar
     4    10    11   ar
     5    11    12   ar
     6    12    13   ar
     7    13    14   ar
     8    14     7    1
     9     7     1    1
    10     1     2    1
    11     1     6    1
    12     2     3    1
    13     3     4    2
    14     4     5    1
    15     5    15    1
    16     5     6    2
    17    15    16    1
    18    16    17   ar
    19    16    24   ar
    20    17    18   ar
    21    17    28    1
    22    18    19   ar
    23    18    25    1
    24    19    20   ar
    25    19    24   ar
    26    20    21   ar
    27    21    22   ar
    28    22    23   ar
    29    23    24   ar
    30    25    26    1
    31    26    27    1
    32    27    28    1



#	Name:			CHEMBL4162941
#	Creating user name:	trannguyen
#	Creation time:		Thu Dec  1 16:45:11 2022


#	Modifying user name:	trannguyen
#	Modification time:	Thu Dec  1 16:45:11 2022

@<TRIPOS>MOLECULE
CHEMBL4162941
 22 24 0 0 0
SMALL
GASTEIGER

@<TRIPOS>ATOM
      1 C          -8.9176   77.7685   69.7202 C.2     1  UNL1       -0.0033
      2 C          -9.0756   78.0849   71.0707 C.2     1  UNL1       -0.0073
      3 C          -9.4341   77.0912   71.9777 C.3     1  UNL1        0.1175
      4 N          -9.6467   75.8196   71.5662 N.pl3   1  UNL1       -0.2986
      5 C          -9.4766   75.4865   70.2649 C.2     1  UNL1        0.0616
      6 C          -9.1522   76.4520   69.3179 C.2     1  UNL1        0.0129
      7 C          -8.3347   78.7768   68.7519 C.3     1  UNL1        0.1272
      8 O          -8.2273   81.5673   69.5006 O.2     1  UNL1       -0.2744
      9 C          -7.2976   80.8180   69.7001 C.2     1  UNL1        0.2321
     10 C          -5.9965   81.2052   70.3611 C.3     1  UNL1        0.0953
     11 C          -5.0838   80.0214   70.0976 C.3     1  UNL1        0.0953
     12 C          -6.0038   78.9538   69.5742 C.2     1  UNL1        0.2321
     13 O          -5.6615   77.8071   69.3138 O.2     1  UNL1       -0.2744
     14 N          -7.2305   79.5022   69.3378 N.am    1  UNL1       -0.2256
     15 C          -9.9418   74.7578   72.5618 C.3     1  UNL1        0.1181
     16 C          -8.7667   74.4756   73.4849 C.ar    1  UNL1       -0.0002
     17 C          -8.8866   74.7208   74.8669 C.ar    1  UNL1       -0.0025
     18 C          -7.8086   74.5021   75.7359 C.ar    1  UNL1        0.0020
     19 C          -6.5956   74.0331   75.2393 C.ar    1  UNL1        0.0296
     20 C          -6.4828   73.7521   73.8856 C.ar    1  UNL1        0.1399
     21 F          -5.3194   73.3011   73.3998 F       1  UNL1       -0.2042
     22 C          -7.5549   73.9440   73.0146 C.ar    1  UNL1        0.0270
@<TRIPOS>BOND
     1     8     9    2
     2     9    10    1
     3     9    14   am
     4    10    11    1
     5    11    12    1
     6    12    13    2
     7    12    14   am
     8    14     7    1
     9     7     1    1
    10     1     2    2
    11     1     6    1
    12     2     3    1
    13     3     4    1
    14     4    15    1
    15     4     5    1
    16    15    16    1
    17    16    17   ar
    18    16    22   ar
    19    17    18   ar
    20    18    19   ar
    21    19    20   ar
    22    20    21    1
    23    20    22   ar
    24     5     6    2



#	Name:			CHEMBL4170878
#	Creating user name:	trannguyen
#	Creation time:		Thu Dec  1 16:45:11 2022


#	Modifying user name:	trannguyen
#	Modification time:	Thu Dec  1 16:45:11 2022

@<TRIPOS>MOLECULE
CHEMBL4170878
 26 29 0 0 0
SMALL
GASTEIGER

@<TRIPOS>ATOM
      1 C           3.1782   69.1263   65.5044 C.2     1  UNL1       -0.0032
      2 C           2.2131   69.2044   66.5140 C.2     1  UNL1       -0.0073
      3 C           2.5415   69.7437   67.7567 C.3     1  UNL1        0.1175
      4 N           3.7865   70.2116   67.9913 N.pl3   1  UNL1       -0.2985
      5 C           4.7320   70.1455   67.0313 C.2     1  UNL1        0.0616
      6 C           4.4565   69.6002   65.7850 C.2     1  UNL1        0.0129
      7 C           2.8623   68.5273   64.1536 C.3     1  UNL1        0.1278
      8 O           5.3554   67.3348   62.9838 O.2     1  UNL1       -0.2695
      9 C           4.4438   66.7016   63.4856 C.2     1  UNL1        0.2554
     10 C           4.5022   65.2607   63.7190 C.ar    1  UNL1        0.0584
     11 C           5.4593   64.3314   63.3598 C.ar    1  UNL1        0.0047
     12 C           5.2522   63.0094   63.7675 C.ar    1  UNL1        0.0001
     13 C           4.1188   62.6575   64.5296 C.ar    1  UNL1        0.0001
     14 C           3.1701   63.6198   64.8902 C.ar    1  UNL1        0.0047
     15 C           3.3861   64.9141   64.4563 C.ar    1  UNL1        0.0584
     16 C           2.6108   66.1332   64.6699 C.2     1  UNL1        0.2554
     17 O           1.6289   66.1973   65.3929 O.2     1  UNL1       -0.2695
     18 N           3.2487   67.1384   63.9925 N.am    1  UNL1       -0.2185
     19 C           4.1365   70.8222   69.2928 C.3     1  UNL1        0.1202
     20 C           5.6199   70.8786   69.5041 C.ar    1  UNL1        0.0251
     21 C           6.2353   70.2006   70.5654 C.ar    1  UNL1       -0.0004
     22 C           7.6225   70.2539   70.7241 C.ar    1  UNL1       -0.0001
     23 C           8.4066   70.9849   69.8312 C.ar    1  UNL1        0.0023
     24 C           7.8030   71.6730   68.7811 C.ar    1  UNL1        0.0294
     25 C           6.4212   71.6173   68.6311 C.ar    1  UNL1        0.1377
     26 F           5.8467   72.2828   67.6183 F       1  UNL1       -0.2044
@<TRIPOS>BOND
     1     8     9    2
     2     9    10    1
     3     9    18   am
     4    10    11   ar
     5    10    15   ar
     6    11    12   ar
     7    12    13   ar
     8    13    14   ar
     9    14    15   ar
    10    15    16    1
    11    16    17    2
    12    16    18   am
    13    18     7    1
    14     7     1    1
    15     1     2    2
    16     1     6    1
    17     2     3    1
    18     3     4    1
    19     4    19    1
    20     4     5    1
    21    19    20    1
    22    20    21   ar
    23    20    25   ar
    24    21    22   ar
    25    22    23   ar
    26    23    24   ar
    27    24    25   ar
    28    25    26    1
    29     5     6    2



#	Name:			CHEMBL4171576
#	Creating user name:	trannguyen
#	Creation time:		Thu Dec  1 16:45:11 2022


#	Modifying user name:	trannguyen
#	Modification time:	Thu Dec  1 16:45:11 2022

@<TRIPOS>MOLECULE
CHEMBL4171576
 28 32 0 0 0
SMALL
GASTEIGER

@<TRIPOS>ATOM
      1 N           0.7720   58.6559   76.8268 N.pl3   1  UNL1       -0.2988
      2 C           1.4450   57.8297   77.6451 C.3     1  UNL1        0.1177
      3 C           1.0720   56.4929   77.7770 C.2     1  UNL1       -0.0050
      4 C          -0.0240   56.0120   77.0570 C.2     1  UNL1       -0.0040
      5 C          -0.7280   56.8692   76.2213 C.2     1  UNL1        0.0147
      6 C          -0.3102   58.1962   76.1393 C.2     1  UNL1        0.0593
      7 C           1.2895   60.0382   76.5972 C.3     1  UNL1        0.1180
      8 CL         -1.8150   64.2965   79.5431 Cl      1  UNL1       -0.0822
      9 C          -0.8794   63.1269   78.6975 C.ar    1  UNL1        0.0577
     10 C          -0.0108   62.2942   79.3942 C.ar    1  UNL1        0.0111
     11 C           0.7000   61.3044   78.7105 C.ar    1  UNL1       -0.0017
     12 C           0.5469   61.1356   77.3265 C.ar    1  UNL1       -0.0024
     13 C          -0.3280   61.9933   76.6357 C.ar    1  UNL1       -0.0017
     14 C          -1.0303   62.9871   77.3191 C.ar    1  UNL1        0.0111
     15 C          -1.9536   56.3756   75.4784 C.3     1  UNL1        0.1336
     16 N          -3.1961   56.5650   76.2262 N.ar    1  UNL1       -0.3267
     17 C          -4.0566   57.6304   76.0884 C.ar    1  UNL1        0.0334
     18 C          -5.0866   57.4709   76.9936 C.ar    1  UNL1       -0.0091
     19 C          -4.8769   56.2433   77.6754 C.ar    1  UNL1        0.0129
     20 C          -5.5964   55.5534   78.6719 C.ar    1  UNL1        0.0012
     21 C          -5.1459   54.3061   79.1107 C.ar    1  UNL1        0.0001
     22 C          -3.9853   53.7512   78.5828 C.ar    1  UNL1        0.0015
     23 C          -3.2355   54.4294   77.6140 C.ar    1  UNL1        0.0172
     24 C          -3.7023   55.6780   77.1658 C.ar    1  UNL1        0.0596
     25 C          -6.2207   58.4344   77.1225 C.3     1  UNL1        0.0275
     26 C          -5.9512   59.7420   76.3564 C.3     1  UNL1        0.0051
     27 C          -5.2741   59.4953   75.0039 C.3     1  UNL1        0.0066
     28 C          -3.9237   58.7761   75.1348 C.3     1  UNL1        0.0435
@<TRIPOS>BOND
     1     8     9    1
     2     9    10   ar
     3     9    14   ar
     4    10    11   ar
     5    11    12   ar
     6    12     7    1
     7    12    13   ar
     8     7     1    1
     9     1     2    1
    10     1     6    1
    11     2     3    1
    12     3     4    2
    13     4     5    1
    14     5    15    1
    15     5     6    2
    16    15    16    1
    17    16    17   ar
    18    16    24   ar
    19    17    18   ar
    20    17    28    1
    21    18    19   ar
    22    18    25    1
    23    19    20   ar
    24    19    24   ar
    25    20    21   ar
    26    21    22   ar
    27    22    23   ar
    28    23    24   ar
    29    25    26    1
    30    26    27    1
    31    27    28    1
    32    13    14   ar



#	Name:			CHEMBL4174929
#	Creating user name:	trannguyen
#	Creation time:		Thu Dec  1 16:45:11 2022


#	Modifying user name:	trannguyen
#	Modification time:	Thu Dec  1 16:45:11 2022

@<TRIPOS>MOLECULE
CHEMBL4174929
 28 32 0 0 0
SMALL
GASTEIGER

@<TRIPOS>ATOM
      1 N          -2.5861   78.9997   80.3934 N.pl3   1  UNL1       -0.2986
      2 C          -3.3314   77.9262   80.7078 C.3     1  UNL1        0.1175
      3 C          -4.6772   77.8377   80.3327 C.2     1  UNL1       -0.0071
      4 C          -5.2570   78.8400   79.5470 C.2     1  UNL1       -0.0010
      5 C          -4.4309   79.9030   79.1763 C.2     1  UNL1        0.0131
      6 C          -3.1211   79.9945   79.6422 C.2     1  UNL1        0.0616
      7 C          -1.1410   79.0847   80.7553 C.3     1  UNL1        0.1177
      8 C           0.5686   79.5232   78.2542 C.3     1  UNL1        0.0308
      9 C           0.4820   78.1946   78.9614 C.ar    1  UNL1       -0.0242
     10 C           1.2674   77.1371   78.4639 C.ar    1  UNL1       -0.0045
     11 C           1.2069   75.8663   79.0307 C.ar    1  UNL1       -0.0003
     12 C           0.3471   75.6271   80.0935 C.ar    1  UNL1       -0.0003
     13 C          -0.4200   76.6688   80.6163 C.ar    1  UNL1       -0.0029
     14 C          -0.3391   77.9757   80.0931 C.ar    1  UNL1       -0.0063
     15 C          -6.7005   78.8307   79.0749 C.3     1  UNL1        0.1322
     16 N          -6.9540   78.2109   77.7689 N.ar    1  UNL1       -0.3268
     17 C          -7.3545   76.9060   77.5626 C.ar    1  UNL1        0.0334
     18 C          -7.3025   76.6470   76.2069 C.ar    1  UNL1       -0.0091
     19 C          -6.9356   77.8445   75.5486 C.ar    1  UNL1        0.0129
     20 C          -6.7701   78.1811   74.1903 C.ar    1  UNL1        0.0012
     21 C          -6.4149   79.4832   73.8400 C.ar    1  UNL1        0.0001
     22 C          -6.2048   80.4402   74.8271 C.ar    1  UNL1        0.0015
     23 C          -6.3398   80.1251   76.1875 C.ar    1  UNL1        0.0172
     24 C          -6.7209   78.8157   76.5349 C.ar    1  UNL1        0.0596
     25 C          -7.6222   75.3144   75.6165 C.3     1  UNL1        0.0275
     26 C          -7.5171   74.2126   76.6801 C.3     1  UNL1        0.0051
     27 C          -8.2767   74.6098   77.9568 C.3     1  UNL1        0.0066
     28 C          -7.7218   75.8986   78.6074 C.3     1  UNL1        0.0435
@<TRIPOS>BOND
     1     8     9    1
     2     9    10   ar
     3     9    14   ar
     4    10    11   ar
     5    11    12   ar
     6    12    13   ar
     7    13    14   ar
     8    14     7    1
     9     7     1    1
    10     1     2    1
    11     1     6    1
    12     2     3    1
    13     3     4    2
    14     4    15    1
    15     4     5    1
    16    15    16    1
    17    16    17   ar
    18    16    24   ar
    19    17    18   ar
    20    17    28    1
    21    18    19   ar
    22    18    25    1
    23    19    20   ar
    24    19    24   ar
    25    20    21   ar
    26    21    22   ar
    27    22    23   ar
    28    23    24   ar
    29    25    26    1
    30    26    27    1
    31    27    28    1
    32     5     6    2



#	Name:			CHEMBL4175199
#	Creating user name:	trannguyen
#	Creation time:		Thu Dec  1 16:45:11 2022


#	Modifying user name:	trannguyen
#	Modification time:	Thu Dec  1 16:45:11 2022

@<TRIPOS>MOLECULE
CHEMBL4175199
 28 32 0 0 0
SMALL
GASTEIGER

@<TRIPOS>ATOM
      1 N           3.1333   69.9651   68.3426 N.pl3   1  UNL1       -0.2986
      2 C           2.2882   69.0094   68.7935 C.3     1  UNL1        0.1175
      3 C           1.7996   68.0314   67.9328 C.2     1  UNL1       -0.0071
      4 C           2.1784   68.0247   66.5925 C.2     1  UNL1       -0.0010
      5 C           3.0681   69.0144   66.1634 C.2     1  UNL1        0.0131
      6 C           3.5485   69.9578   67.0614 C.2     1  UNL1        0.0616
      7 C           3.6221   71.0102   69.2713 C.3     1  UNL1        0.1180
      8 F           9.2749   70.8799   69.6210 F       1  UNL1       -0.2042
      9 C           7.9390   70.9030   69.5349 C.ar    1  UNL1        0.1401
     10 C           7.1763   70.3704   70.5658 C.ar    1  UNL1        0.0294
     11 C           5.7819   70.3915   70.4771 C.ar    1  UNL1       -0.0003
     12 C           5.1444   70.9551   69.3559 C.ar    1  UNL1       -0.0023
     13 C           5.9378   71.4861   68.3230 C.ar    1  UNL1       -0.0003
     14 C           7.3326   71.4591   68.4153 C.ar    1  UNL1        0.0294
     15 C           1.6304   66.9822   65.6471 C.3     1  UNL1        0.1322
     16 N           2.6036   66.5704   64.6432 N.ar    1  UNL1       -0.3268
     17 C           2.9671   67.3031   63.5394 C.ar    1  UNL1        0.0334
     18 C           3.9408   66.6005   62.8578 C.ar    1  UNL1       -0.0091
     19 C           4.1554   65.3770   63.5461 C.ar    1  UNL1        0.0129
     20 C           4.9850   64.2615   63.3159 C.ar    1  UNL1        0.0012
     21 C           4.9432   63.1724   64.1916 C.ar    1  UNL1        0.0001
     22 C           4.1090   63.1930   65.3031 C.ar    1  UNL1        0.0015
     23 C           3.3035   64.3023   65.5734 C.ar    1  UNL1        0.0172
     24 C           3.3216   65.3814   64.6700 C.ar    1  UNL1        0.0596
     25 C           4.5957   67.1195   61.6209 C.3     1  UNL1        0.0275
     26 C           3.7689   68.2487   60.9839 C.3     1  UNL1        0.0051
     27 C           3.2788   69.2617   62.0322 C.3     1  UNL1        0.0066
     28 C           2.3807   68.6088   63.0997 C.3     1  UNL1        0.0435
@<TRIPOS>BOND
     1     8     9    1
     2     9    10   ar
     3     9    14   ar
     4    10    11   ar
     5    11    12   ar
     6    12     7    1
     7    12    13   ar
     8     7     1    1
     9     1     2    1
    10     1     6    1
    11     2     3    1
    12     3     4    2
    13     4    15    1
    14     4     5    1
    15    15    16    1
    16    16    17   ar
    17    16    24   ar
    18    17    18   ar
    19    17    28    1
    20    18    19   ar
    21    18    25    1
    22    19    20   ar
    23    19    24   ar
    24    20    21   ar
    25    21    22   ar
    26    22    23   ar
    27    23    24   ar
    28    25    26    1
    29    26    27    1
    30    27    28    1
    31     5     6    2
    32    13    14   ar



#	Name:			CHEMBL4633036
#	Creating user name:	trannguyen
#	Creation time:		Thu Dec  1 16:45:11 2022


#	Modifying user name:	trannguyen
#	Modification time:	Thu Dec  1 16:45:11 2022

@<TRIPOS>MOLECULE
CHEMBL4633036
 32 34 0 0 0
SMALL
GASTEIGER

@<TRIPOS>ATOM
      1 C           2.1628   67.3832   66.6536 C.3     1  UNL1        0.0888
      2 N           1.6880   66.8194   65.3858 N.pl3   1  UNL1       -0.3328
      3 H           1.0368   66.0471   65.5063 H       1  UNL1        0.1468
      4 C           2.6917   66.4549   64.4412 C.ar    1  UNL1        0.0431
      5 C           2.9532   67.3604   63.3863 C.ar    1  UNL1        0.0045
      6 C           3.9126   66.9947   62.4399 C.ar    1  UNL1        0.0561
      7 N           4.6959   65.9023   62.5632 N.ar    1  UNL1       -0.2499
      8 C           4.4315   65.0286   63.5360 C.ar    1  UNL1        0.0820
      9 C           5.2416   63.9024   63.6119 C.ar    1  UNL1        0.0191
     10 C           4.9964   62.8702   64.5154 C.ar    1  UNL1        0.0015
     11 C           3.8647   62.9256   65.3042 C.ar    1  UNL1        0.0001
     12 C           3.0391   64.0456   65.2262 C.ar    1  UNL1        0.0027
     13 C           3.3605   65.1833   64.4351 C.ar    1  UNL1        0.0305
     14 C           4.1294   67.7859   61.1781 C.3     1  UNL1        0.0455
     15 C           2.9215   68.6485   60.8367 C.3     1  UNL1        0.0066
     16 C           2.5979   69.5244   62.0373 C.3     1  UNL1        0.0052
     17 C           2.2087   68.6739   63.2563 C.3     1  UNL1        0.0288
     18 C           2.1024   68.9051   66.6600 C.3     1  UNL1        0.0424
     19 C           2.5122   69.4354   68.0385 C.3     1  UNL1        0.0912
     20 C           4.3337   70.8245   69.0338 C.2     1  UNL1        0.2374
     21 O           3.7178   71.0559   70.0878 O.2     1  UNL1       -0.2736
     22 N           3.8095   70.0796   68.0020 N.am    1  UNL1       -0.3032
     23 H           4.4758   69.7437   67.3091 H       1  UNL1        0.1495
     24 C           5.7820   71.3196   68.7974 C.3     1  UNL1        0.1392
     25 N           5.7833   72.6510   68.1371 N.3     1  UNL1       -0.3143
     26 H           5.6478   72.5195   67.1347 H       1  UNL1        0.1193
     27 H           4.9871   73.1852   68.4841 H       1  UNL1        0.1193
     28 C           6.5973   70.2864   67.9990 C.3     1  UNL1        0.0827
     29 S           6.6989   70.7008   66.2076 S.3     1  UNL1       -0.1335
     30 C           5.4135   69.6020   65.5507 C.3     1  UNL1        0.0835
     31 C           5.9523   69.5738   63.1065 C.2     1  UNL1       -0.0040
     32 C           5.8374   68.9357   64.2794 C.2     1  UNL1       -0.0145
@<TRIPOS>BOND
     1    31    32    2
     2    32    30    1
     3    30    29    1
     4    29    28    1
     5    28    24    1
     6    24    25    1
     7    24    20    1
     8    25    26    1
     9    25    27    1
    10    20    21    2
    11    20    22   am
    12    22    19    1
    13    22    23    1
    14    19    18    1
    15    18     1    1
    16     1     2    1
    17     2     4    1
    18     2     3    1
    19     4     5   ar
    20     4    13   ar
    21     5     6   ar
    22     5    17    1
    23     6     7   ar
    24     6    14    1
    25     7     8   ar
    26     8     9   ar
    27     8    13   ar
    28     9    10   ar
    29    10    11   ar
    30    11    12   ar
    31    12    13   ar
    32    14    15    1
    33    15    16    1
    34    16    17    1



#	Name:			CHEMBL4639503
#	Creating user name:	trannguyen
#	Creation time:		Thu Dec  1 16:45:11 2022


#	Modifying user name:	trannguyen
#	Modification time:	Thu Dec  1 16:45:11 2022

@<TRIPOS>MOLECULE
CHEMBL4639503
 33 35 0 0 0
SMALL
GASTEIGER

@<TRIPOS>ATOM
      1 N           3.0530   70.0755   68.2407 N.pl3   1  UNL1       -0.3328
      2 H           2.3300   70.6170   67.7764 H       1  UNL1        0.1468
      3 C           4.2912   70.0965   67.5954 C.ar    1  UNL1        0.0431
      4 C           5.5149   70.3421   68.2547 C.ar    1  UNL1        0.0045
      5 C           6.6899   70.3598   67.4849 C.ar    1  UNL1        0.0561
      6 N           6.7334   70.0762   66.1663 N.ar    1  UNL1       -0.2499
      7 C           5.5984   69.8004   65.5352 C.ar    1  UNL1        0.0829
      8 C           5.7047   69.4961   64.1857 C.ar    1  UNL1        0.0305
      9 C           4.5826   69.1825   63.4323 C.ar    1  UNL1        0.0592
     10 CL          4.7469   68.7882   61.7652 Cl      1  UNL1       -0.0822
     11 C           3.3282   69.2045   64.0211 C.ar    1  UNL1        0.0115
     12 C           3.2061   69.5463   65.3731 C.ar    1  UNL1        0.0036
     13 C           4.3394   69.8159   66.1814 C.ar    1  UNL1        0.0305
     14 C           8.0387   70.6664   68.0798 C.3     1  UNL1        0.0455
     15 C           7.9347   71.3943   69.4088 C.3     1  UNL1        0.0066
     16 C           7.0291   70.5929   70.3267 C.3     1  UNL1        0.0052
     17 C           5.6153   70.5421   69.7485 C.3     1  UNL1        0.0288
     18 C           2.6221   69.3525   69.4369 C.3     1  UNL1        0.0888
     19 C           2.2527   67.9148   69.0590 C.3     1  UNL1        0.0424
     20 C           1.2499   67.8384   67.9072 C.3     1  UNL1        0.0912
     21 C           1.1034   66.6199   65.7343 C.2     1  UNL1        0.2374
     22 O          -0.1131   66.4646   65.7927 O.2     1  UNL1       -0.2736
     23 N           1.8364   67.2695   66.7088 N.am    1  UNL1       -0.3032
     24 H           2.7941   67.4978   66.4506 H       1  UNL1        0.1495
     25 C           1.9478   66.0680   64.5670 C.3     1  UNL1        0.1392
     26 N           1.4616   64.7154   64.1660 N.3     1  UNL1       -0.3143
     27 H           1.9598   64.4825   63.3004 H       1  UNL1        0.1193
     28 H           0.4811   64.7902   63.8983 H       1  UNL1        0.1193
     29 C           3.4347   66.0545   64.9577 C.3     1  UNL1        0.0833
     30 S           4.4726   65.3909   63.5923 S.3     1  UNL1       -0.1241
     31 C           4.5569   63.6489   64.1074 C.3     1  UNL1        0.1342
     32 C           3.8408   63.2428   66.6494 C.1     1  UNL1       -0.0133
     33 C           4.1819   63.4424   65.5047 C.1     1  UNL1       -0.0660
@<TRIPOS>BOND
     1    32    33    3
     2    33    31    1
     3    31    30    1
     4    30    29    1
     5    29    25    1
     6    25    26    1
     7    25    21    1
     8    26    27    1
     9    26    28    1
    10    21    22    2
    11    21    23   am
    12    23    20    1
    13    23    24    1
    14    20    19    1
    15    19    18    1
    16    18     1    1
    17     1     3    1
    18     1     2    1
    19     3     4   ar
    20     3    13   ar
    21     4     5   ar
    22     4    17    1
    23     5     6   ar
    24     5    14    1
    25     6     7   ar
    26     7     8   ar
    27     7    13   ar
    28     8     9   ar
    29     9    10    1
    30     9    11   ar
    31    11    12   ar
    32    12    13   ar
    33    14    15    1
    34    15    16    1
    35    16    17    1



#	Name:			CHEMBL4639993
#	Creating user name:	trannguyen
#	Creation time:		Thu Dec  1 16:45:11 2022


#	Modifying user name:	trannguyen
#	Modification time:	Thu Dec  1 16:45:11 2022

@<TRIPOS>MOLECULE
CHEMBL4639993
 33 35 0 0 0
SMALL
GASTEIGER

@<TRIPOS>ATOM
      1 N          -7.7149   59.5547   75.5145 N.pl3   1  UNL1       -0.3328
      2 H          -8.1063   59.1313   74.6754 H       1  UNL1        0.1468
      3 C          -7.0715   58.6064   76.3226 C.ar    1  UNL1        0.0431
      4 C          -7.7185   57.6980   77.1923 C.ar    1  UNL1        0.0045
      5 C          -6.9356   56.9536   78.0894 C.ar    1  UNL1        0.0561
      6 N          -5.5881   56.9201   78.0352 N.ar    1  UNL1       -0.2499
      7 C          -4.9689   57.6170   77.0822 C.ar    1  UNL1        0.0829
      8 C          -3.6044   57.4145   76.9522 C.ar    1  UNL1        0.0305
      9 C          -2.8709   58.0544   75.9609 C.ar    1  UNL1        0.0592
     10 CL         -1.2035   57.6809   75.7567 Cl      1  UNL1       -0.0822
     11 C          -3.4861   58.9716   75.1231 C.ar    1  UNL1        0.0115
     12 C          -4.8565   59.2109   75.2618 C.ar    1  UNL1        0.0036
     13 C          -5.6432   58.5033   76.2114 C.ar    1  UNL1        0.0305
     14 C          -7.5415   56.0819   79.1688 C.3     1  UNL1        0.0455
     15 C          -9.0574   56.1974   79.2896 C.3     1  UNL1        0.0066
     16 C          -9.6654   56.1785   77.8998 C.3     1  UNL1        0.0052
     17 C          -9.2047   57.4414   77.1654 C.3     1  UNL1        0.0288
     18 C          -8.3999   60.7903   75.9010 C.3     1  UNL1        0.0888
     19 C          -7.5325   62.0382   75.7041 C.3     1  UNL1        0.0424
     20 C          -7.4109   62.8590   76.9994 C.3     1  UNL1        0.0912
     21 C          -5.8266   64.3493   78.2362 C.2     1  UNL1        0.2374
     22 O          -6.4917   64.3092   79.2897 O.2     1  UNL1       -0.2736
     23 N          -6.1393   63.5852   77.1229 N.am    1  UNL1       -0.3032
     24 H          -5.5916   63.7365   76.2863 H       1  UNL1        0.1495
     25 C          -4.5735   65.2419   78.0781 C.3     1  UNL1        0.1392
     26 N          -4.1582   65.2445   76.6503 N.3     1  UNL1       -0.3143
     27 H          -3.2104   64.8630   76.5859 H       1  UNL1        0.1193
     28 H          -4.7524   64.6228   76.1076 H       1  UNL1        0.1193
     29 C          -3.4391   64.8261   79.0595 C.3     1  UNL1        0.0827
     30 S          -2.2030   63.6818   78.3075 S.3     1  UNL1       -0.1335
     31 C          -2.9683   62.0753   78.7206 C.3     1  UNL1        0.0835
     32 C          -1.1698   61.0825   77.2269 C.2     1  UNL1       -0.0040
     33 C          -2.1631   60.9549   78.1198 C.2     1  UNL1       -0.0145
@<TRIPOS>BOND
     1    32    33    2
     2    33    31    1
     3    31    30    1
     4    30    29    1
     5    29    25    1
     6    25    26    1
     7    25    21    1
     8    26    27    1
     9    26    28    1
    10    21    22    2
    11    21    23   am
    12    23    20    1
    13    23    24    1
    14    20    19    1
    15    19    18    1
    16    18     1    1
    17     1     3    1
    18     1     2    1
    19     3     4   ar
    20     3    13   ar
    21     4     5   ar
    22     4    17    1
    23     5     6   ar
    24     5    14    1
    25     6     7   ar
    26     7     8   ar
    27     7    13   ar
    28     8     9   ar
    29     9    10    1
    30     9    11   ar
    31    11    12   ar
    32    12    13   ar
    33    14    15    1
    34    15    16    1
    35    16    17    1



#	Name:			CHEMBL538358
#	Creating user name:	trannguyen
#	Creation time:		Thu Dec  1 16:45:11 2022


#	Modifying user name:	trannguyen
#	Modification time:	Thu Dec  1 16:45:11 2022

@<TRIPOS>MOLECULE
CHEMBL538358
 40 43 0 0 0
SMALL
GASTEIGER

@<TRIPOS>ATOM
      1 N          -0.9451   57.3309   77.8983 N.pl3   1  UNL1       -0.2871
      2 C          -1.2595   56.1337   78.5187 C.2     1  UNL1        0.0527
      3 C          -2.2487   56.0958   79.4955 C.2     1  UNL1        0.0286
      4 C          -3.0307   57.1956   79.7863 C.2     1  UNL1        0.0402
      5 N          -4.0282   57.0449   80.7579 N.pl3   1  UNL1       -0.3572
      6 C          -2.6302   58.4261   79.2532 C.2     1  UNL1        0.0088
      7 C          -3.3701   59.5778   79.5649 C.3     1  UNL1        0.0548
      8 C          -3.0694   60.8129   79.0142 C.2     1  UNL1       -0.0213
      9 C          -1.9452   60.9792   78.2312 C.ar    1  UNL1       -0.0027
     10 C          -1.6991   62.2689   77.7390 C.ar    1  UNL1        0.0010
     11 C          -0.5635   62.5448   76.9941 C.ar    1  UNL1        0.0141
     12 C           0.3682   61.5423   76.7804 C.ar    1  UNL1        0.0416
     13 N           1.5954   61.8554   76.1732 N.pl3   1  UNL1       -0.3570
     14 C           0.1461   60.2793   77.3414 C.ar    1  UNL1        0.0153
     15 C          -1.0722   59.8848   77.9748 C.ar    1  UNL1        0.0143
     16 C          -1.4963   58.5333   78.3769 C.2     1  UNL1        0.0490
     17 H          -4.4054   56.1082   80.8605 H       1  UNL1        0.1423
     18 H          -4.7915   57.7208   80.7255 H       1  UNL1        0.1423
     19 H           1.5657   62.6807   75.5774 H       1  UNL1        0.1424
     20 H           2.0602   61.0905   75.6880 H       1  UNL1        0.1424
     21 C          -0.6632   54.8221   78.0821 C.ar    1  UNL1        0.0137
     22 C          -1.5060   53.8130   77.5499 C.ar    1  UNL1        0.0012
     23 C          -1.0239   52.5585   77.1581 C.ar    1  UNL1        0.0000
     24 C           0.3330   52.2882   77.2395 C.ar    1  UNL1        0.0000
     25 C           1.1907   53.2477   77.7699 C.ar    1  UNL1        0.0000
     26 C           0.6932   54.4799   78.2296 C.ar    1  UNL1        0.0012
     27 C          -0.1837   57.3179   76.6131 C.3     1  UNL1        0.0955
     28 C          -1.0558   57.6328   75.4079 C.3     1  UNL1        0.0218
     29 C          -2.1140   56.5475   75.2371 C.3     1  UNL1        0.0018
     30 C          -3.4764   57.1104   75.5976 C.3     1  UNL1        0.0001
     31 C          -3.5549   58.6165   75.3743 C.3     1  UNL1        0.0000
     32 C          -4.7993   59.1314   76.0828 C.3     1  UNL1        0.0000
     33 C          -5.5064   58.0785   76.9222 C.3     1  UNL1        0.0002
     34 C          -6.5753   58.7779   77.7651 C.3     1  UNL1        0.0061
     35 C          -7.3932   59.7614   76.9421 C.3     1  UNL1        0.0610
     36 C          -8.0551   60.8096   77.8440 C.3     1  UNL1        0.1092
     37 C          -8.7982   63.2123   77.8966 C.3     1  UNL1        0.1710
     38 N          -7.7013   62.2441   77.4539 N.4     1  UNL1        0.3106
     39 C          -7.6034   62.3537   75.9301 C.3     1  UNL1        0.1710
     40 C          -6.3687   62.6860   78.0354 C.3     1  UNL1        0.1710
@<TRIPOS>UNITY_ATOM_ATTR
38 1
charge 1
@<TRIPOS>BOND
     1    37    38    1
     2    38    39    1
     3    38    40    1
     4    38    36    1
     5    36    35    1
     6    35    34    1
     7    34    33    1
     8    33    32    1
     9    32    31    1
    10    31    30    1
    11    30    29    1
    12    29    28    1
    13    28    27    1
    14    27     1    1
    15     1     2    1
    16     1    16    1
    17     2    21    1
    18     2     3    2
    19    21    22   ar
    20    21    26   ar
    21    22    23   ar
    22    23    24   ar
    23    24    25   ar
    24    25    26   ar
    25     3     4    1
    26     4     5    1
    27     4     6    2
    28     5    17    1
    29     5    18    1
    30     6     7    1
    31     6    16    1
    32     7     8    1
    33     8     9    2
    34     9    10   ar
    35     9    15   ar
    36    10    11   ar
    37    11    12   ar
    38    12    13    1
    39    12    14   ar
    40    13    19    1
    41    13    20    1
    42    14    15   ar
    43    15    16    2



#	Name:			CHEMBL538603
#	Creating user name:	trannguyen
#	Creation time:		Thu Dec  1 16:45:11 2022


#	Modifying user name:	trannguyen
#	Modification time:	Thu Dec  1 16:45:11 2022

@<TRIPOS>MOLECULE
CHEMBL538603
 29 32 0 0 0
SMALL
GASTEIGER

@<TRIPOS>ATOM
      1 C           4.5993   69.0382   63.4653 C.ar    1  UNL1        0.1498
      2 C           5.8374   69.6969   63.4311 C.ar    1  UNL1        0.0389
      3 C           6.4009   70.2143   64.6307 C.ar    1  UNL1        0.0175
      4 C           5.6751   70.1046   65.8458 C.ar    1  UNL1        0.0484
      5 C           4.4602   69.5011   65.8959 C.ar    1  UNL1        0.0010
      6 C           3.9731   68.9018   64.7026 C.ar    1  UNL1        0.0349
      7 C           3.6955   69.7541   67.2886 C.3     1  UNL1        0.0909
      8 C           2.2552   69.4163   66.6479 C.3     1  UNL1        0.0123
      9 C           2.8620   69.9651   68.6163 C.3     1  UNL1        0.0739
     10 C           3.6183   70.4061   69.8087 C.3     1  UNL1        0.1491
     11 N           4.9152   70.8146   69.3181 N.4     1  UNL1        0.4809
     12 C           4.9576   72.2724   69.1147 C.3     1  UNL1        0.2116
     13 O           5.8304   70.4818   70.2675 O.3     1  UNL1       -0.1101
     14 C           5.1020   69.9836   68.0932 C.3     1  UNL1        0.1802
     15 N           6.0540   70.5233   67.1153 N.pl3   1  UNL1       -0.2650
     16 C           7.3019   71.2201   67.3903 C.3     1  UNL1        0.1174
     17 O           3.9761   68.5645   62.3219 O.3     1  UNL1       -0.4100
     18 N           2.0792   67.1833   62.8400 N.am    1  UNL1       -0.2502
     19 C           2.6150   68.3144   62.2864 C.2     1  UNL1        0.4099
     20 O           1.8800   69.1087   61.7202 O.2     1  UNL1       -0.2257
     21 H           1.0554   67.0945   62.8032 H       1  UNL1        0.1582
     22 C           1.4728   66.3887   65.7352 C.3     1  UNL1        0.0323
     23 C           2.5856   65.7605   64.8962 C.ar    1  UNL1       -0.0086
     24 C           3.4044   64.7659   65.4939 C.ar    1  UNL1       -0.0031
     25 C           4.3804   64.1016   64.7623 C.ar    1  UNL1       -0.0006
     26 C           4.7076   64.5496   63.4999 C.ar    1  UNL1       -0.0031
     27 C           4.0271   65.6290   62.9256 C.ar    1  UNL1       -0.0086
     28 C           4.5813   66.2337   61.6863 C.3     1  UNL1        0.0323
     29 C           2.8623   66.1682   63.5388 C.ar    1  UNL1        0.0452
@<TRIPOS>UNITY_ATOM_ATTR
11 1
charge 1
@<TRIPOS>BOND
     1    22    23    1
     2    23    24   ar
     3    23    29   ar
     4    24    25   ar
     5    25    26   ar
     6    26    27   ar
     7    27    28    1
     8    27    29   ar
     9    29    18    1
    10    18    19   am
    11    18    21    1
    12    19    20    2
    13    19    17    1
    14    17     1    1
    15     1     2   ar
    16     1     6   ar
    17     2     3   ar
    18     3     4   ar
    19     4     5   ar
    20     4    15    1
    21     5     6   ar
    22     5     7    1
    23     7     8    1
    24     7     9    1
    25     7    14    1
    26     9    10    1
    27    10    11    1
    28    11    12    1
    29    11    13    1
    30    11    14    1
    31    14    15    1
    32    15    16    1



#	Name:			CHEMBL539625
#	Creating user name:	trannguyen
#	Creation time:		Thu Dec  1 16:45:11 2022


#	Modifying user name:	trannguyen
#	Modification time:	Thu Dec  1 16:45:11 2022

@<TRIPOS>MOLECULE
CHEMBL539625
 29 32 0 0 0
SMALL
GASTEIGER

@<TRIPOS>ATOM
      1 C          -2.3468   56.7240   76.8613 C.ar    1  UNL1        0.1498
      2 C          -2.5853   57.4229   75.6472 C.ar    1  UNL1        0.0389
      3 C          -3.7676   58.2121   75.5276 C.ar    1  UNL1        0.0175
      4 C          -4.7181   58.1896   76.5843 C.ar    1  UNL1        0.0484
      5 C          -4.4983   57.4952   77.7300 C.ar    1  UNL1        0.0010
      6 C          -3.2403   56.8818   77.8934 C.ar    1  UNL1        0.0349
      7 C          -5.8166   57.3138   78.6404 C.3     1  UNL1        0.0909
      8 C          -5.2508   55.9627   79.3330 C.3     1  UNL1        0.0123
      9 C          -7.0897   57.0950   79.5601 C.3     1  UNL1        0.0739
     10 C          -8.1652   58.1045   79.4233 C.3     1  UNL1        0.1491
     11 N          -7.9147   58.7655   78.1629 N.4     1  UNL1        0.4809
     12 C          -8.6730   58.1345   77.0674 C.3     1  UNL1        0.2116
     13 O          -8.3321   60.0532   78.2880 O.3     1  UNL1       -0.1101
     14 C          -6.4317   58.7103   78.0433 C.3     1  UNL1        0.1802
     15 N          -5.9260   58.8607   76.6754 N.pl3   1  UNL1       -0.2650
     16 C          -6.4130   59.7874   75.6632 C.3     1  UNL1        0.1174
     17 O          -1.3496   55.8239   77.0690 O.3     1  UNL1       -0.4100
     18 N           0.8195   56.3528   76.1658 N.am    1  UNL1       -0.2496
     19 C          -0.3082   55.5698   76.2253 C.2     1  UNL1        0.4099
     20 O          -0.4204   54.6137   75.4666 O.2     1  UNL1       -0.2257
     21 H           1.5005   56.1351   75.4106 H       1  UNL1        0.1582
     22 C           4.0227   64.3685   80.0631 C.3     1  UNL1        0.0311
     23 C           3.9453   59.3556   79.4592 C.ar    1  UNL1       -0.0209
     24 C           1.1375   59.4324   77.7782 C.ar    1  UNL1       -0.0084
     25 C           1.1506   58.3764   79.2343 C.ar    1  UNL1       -0.0209
     26 C           0.8430   58.2040   80.7589 C.3     1  UNL1        0.0311
     27 C           0.8267   57.3689   78.4083 C.ar    1  UNL1        0.0105
     28 C           1.1153   57.4406   76.9676 C.ar    1  UNL1        0.0526
     29 C           1.0492   58.6784   75.8412 C.ar    1  UNL1        0.0105
@<TRIPOS>UNITY_ATOM_ATTR
11 1
charge 1
@<TRIPOS>BOND
     1    22    23    1
     2    23    24   ar
     3    23    29   ar
     4    24    25   ar
     5    25    26    1
     6    25    27   ar
     7    27    28   ar
     8    28    18    1
     9    28    29   ar
    10    18    19   am
    11    18    21    1
    12    19    20    2
    13    19    17    1
    14    17     1    1
    15     1     2   ar
    16     1     6   ar
    17     2     3   ar
    18     3     4   ar
    19     4     5   ar
    20     4    15    1
    21     5     6   ar
    22     5     7    1
    23     7     8    1
    24     7     9    1
    25     7    14    1
    26     9    10    1
    27    10    11    1
    28    11    12    1
    29    11    13    1
    30    11    14    1
    31    14    15    1
    32    15    16    1



#	Name:			CHEMBL539873
#	Creating user name:	trannguyen
#	Creation time:		Thu Dec  1 16:45:11 2022


#	Modifying user name:	trannguyen
#	Modification time:	Thu Dec  1 16:45:11 2022

@<TRIPOS>MOLECULE
CHEMBL539873
 29 32 0 0 0
SMALL
GASTEIGER

@<TRIPOS>ATOM
      1 C          -1.4754   55.2044   76.4223 C.ar    1  UNL1        0.1498
      2 C          -1.9452   54.5691   77.5832 C.ar    1  UNL1        0.0389
      3 C          -3.2266   54.9112   78.0902 C.ar    1  UNL1        0.0175
      4 C          -3.9524   55.9620   77.4640 C.ar    1  UNL1        0.0484
      5 C          -3.4863   56.6003   76.3601 C.ar    1  UNL1        0.0010
      6 C          -2.3067   56.1095   75.7743 C.ar    1  UNL1        0.0349
      7 C          -4.2682   57.9639   76.0193 C.3     1  UNL1        0.0909
      8 C          -2.9913   58.6017   75.2479 C.3     1  UNL1        0.0123
      9 C          -4.9932   59.3220   75.6535 C.3     1  UNL1        0.0739
     10 C          -6.3877   59.4561   76.1296 C.3     1  UNL1        0.1491
     11 N          -6.5464   58.4489   77.1543 N.4     1  UNL1        0.4809
     12 C          -6.2875   59.0078   78.4931 C.3     1  UNL1        0.2116
     13 O          -7.8350   58.0186   77.1080 O.3     1  UNL1       -0.1101
     14 C          -5.6240   57.3668   76.7168 C.3     1  UNL1        0.1802
     15 N          -5.1986   56.4606   77.7898 N.pl3   1  UNL1       -0.2650
     16 C          -6.0217   55.9185   78.8601 C.3     1  UNL1        0.1174
     17 O          -0.1967   55.0429   75.9467 O.3     1  UNL1       -0.4100
     18 N           1.3624   55.8609   77.5527 N.am    1  UNL1       -0.2496
     19 C           0.8518   54.8352   76.8304 C.2     1  UNL1        0.4099
     20 O           1.3298   53.7153   76.9573 O.2     1  UNL1       -0.2257
     21 H           2.1978   55.6700   78.1651 H       1  UNL1        0.1582
     22 C          -0.7312   59.0064   78.1254 C.ar    1  UNL1       -0.0210
     23 C          -0.0728   59.8245   77.1485 C.ar    1  UNL1       -0.0042
     24 C           0.9665   59.3277   76.3598 C.ar    1  UNL1        0.0010
     25 C           1.4094   58.0307   76.5024 C.ar    1  UNL1        0.0147
     26 C           0.8813   57.2097   77.4901 C.ar    1  UNL1        0.0529
     27 C          -0.1833   57.7137   78.3143 C.ar    1  UNL1        0.0105
     28 C          -2.8171   58.3664   79.8913 C.3     1  UNL1        0.0050
     29 C          -1.9879   59.3970   79.0165 C.3     1  UNL1        0.0264
@<TRIPOS>UNITY_ATOM_ATTR
11 1
charge 1
@<TRIPOS>BOND
     1    28    29    1
     2    29    22    1
     3    22    23   ar
     4    22    27   ar
     5    23    24   ar
     6    24    25   ar
     7    25    26   ar
     8    26    18    1
     9    26    27   ar
    10    18    19   am
    11    18    21    1
    12    19    20    2
    13    19    17    1
    14    17     1    1
    15     1     2   ar
    16     1     6   ar
    17     2     3   ar
    18     3     4   ar
    19     4     5   ar
    20     4    15    1
    21     5     6   ar
    22     5     7    1
    23     7     8    1
    24     7     9    1
    25     7    14    1
    26     9    10    1
    27    10    11    1
    28    11    12    1
    29    11    13    1
    30    11    14    1
    31    14    15    1
    32    15    16    1



#	Name:			CHEMBL553187
#	Creating user name:	trannguyen
#	Creation time:		Thu Dec  1 16:45:11 2022


#	Modifying user name:	trannguyen
#	Modification time:	Thu Dec  1 16:45:11 2022

@<TRIPOS>MOLECULE
CHEMBL553187
 28 30 0 0 0
SMALL
GASTEIGER

@<TRIPOS>ATOM
      1 C          -8.3039   61.5104   76.6065 C.3     1  UNL1        0.0882
      2 N          -7.9015   60.6613   75.5102 N.pl3   1  UNL1       -0.3167
      3 H          -8.3727   60.7468   74.5964 H       1  UNL1        0.1482
      4 C          -6.8432   59.7260   75.6358 C.ar    1  UNL1        0.1503
      5 C          -6.8229   58.7685   76.6613 C.ar    1  UNL1        0.0375
      6 C          -5.7107   57.9522   76.7974 C.ar    1  UNL1        0.0238
      7 C          -4.6598   58.0764   75.8850 C.ar    1  UNL1        0.1030
      8 N          -4.7579   58.9696   74.8681 N.ar    1  UNL1       -0.1468
      9 N          -5.8098   59.7842   74.7590 N.ar    1  UNL1       -0.1331
     10 C          -3.4107   57.3253   76.0558 C.ar    1  UNL1        0.0194
     11 C          -2.2123   57.8457   75.5404 C.ar    1  UNL1        0.0016
     12 C          -1.0372   57.0985   75.6113 C.ar    1  UNL1        0.0000
     13 C          -1.0431   55.8440   76.2261 C.ar    1  UNL1        0.0000
     14 C          -2.2290   55.3303   76.7610 C.ar    1  UNL1        0.0000
     15 C          -3.4164   56.0600   76.6601 C.ar    1  UNL1        0.0016
     16 C          -7.2071   62.5113   76.9259 C.3     1  UNL1        0.0213
     17 C          -6.8127   62.3888   78.3898 C.3     1  UNL1        0.0032
     18 C          -5.4740   61.6801   78.5116 C.3     1  UNL1        0.0174
     19 C          -4.4723   62.5541   79.2718 C.3     1  UNL1        0.0724
     20 C          -2.2745   63.1371   78.4567 C.3     1  UNL1        0.0899
     21 N          -3.0904   62.0609   79.0687 N.3     1  UNL1       -0.2678
     22 C          -3.0089   60.8553   78.2081 C.3     1  UNL1        0.0992
     23 C          -2.4363   59.5664   78.8050 C.ar    1  UNL1       -0.0061
     24 C          -1.0524   59.3609   78.6419 C.ar    1  UNL1       -0.0029
     25 C          -0.4335   58.2048   79.1222 C.ar    1  UNL1       -0.0003
     26 C          -1.1882   57.2192   79.7542 C.ar    1  UNL1       -0.0000
     27 C          -2.5572   57.4062   79.9432 C.ar    1  UNL1       -0.0003
     28 C          -3.1803   58.5802   79.4995 C.ar    1  UNL1       -0.0029
@<TRIPOS>BOND
     1    20    21    1
     2    21    19    1
     3    21    22    1
     4    19    18    1
     5    18    17    1
     6    17    16    1
     7    16     1    1
     8     1     2    1
     9     2     4    1
    10     2     3    1
    11     4     5   ar
    12     4     9   ar
    13     5     6   ar
    14     6     7   ar
    15     7    10    1
    16     7     8   ar
    17    10    11   ar
    18    10    15   ar
    19    11    12   ar
    20    12    13   ar
    21    13    14   ar
    22    14    15   ar
    23     8     9   ar
    24    22    23    1
    25    23    24   ar
    26    23    28   ar
    27    24    25   ar
    28    25    26   ar
    29    26    27   ar
    30    27    28   ar



#	Name:			CHEMBL556144
#	Creating user name:	trannguyen
#	Creation time:		Thu Dec  1 16:45:11 2022


#	Modifying user name:	trannguyen
#	Modification time:	Thu Dec  1 16:45:11 2022

@<TRIPOS>MOLECULE
CHEMBL556144
 23 25 0 0 0
SMALL
GASTEIGER

@<TRIPOS>ATOM
      1 C           4.6082   69.8431   66.2290 C.ar    1  UNL1        0.1030
      2 C           5.2289   69.7830   64.9675 C.ar    1  UNL1        0.0238
      3 C           4.4936   69.3662   63.8699 C.ar    1  UNL1        0.0375
      4 C           3.1553   69.0165   64.0370 C.ar    1  UNL1        0.1503
      5 N           2.5908   69.1017   65.2658 N.ar    1  UNL1       -0.1331
      6 N           3.2935   69.4914   66.3239 N.ar    1  UNL1       -0.1468
      7 C           6.6436   70.8295   69.8856 C.ar    1  UNL1        0.0000
      8 C           7.3791   70.7120   68.7024 C.ar    1  UNL1        0.0000
      9 C           6.7343   70.4124   67.5010 C.ar    1  UNL1        0.0016
     10 C           5.3349   70.2265   67.4706 C.ar    1  UNL1        0.0194
     11 C           4.6084   70.3686   68.6718 C.ar    1  UNL1        0.0016
     12 C           5.2634   70.6667   69.8656 C.ar    1  UNL1        0.0000
     13 N           2.3914   68.6225   62.9235 N.pl3   1  UNL1       -0.3167
     14 H           1.3693   68.5200   63.0429 H       1  UNL1        0.1482
     15 C           3.0078   68.2909   61.6542 C.3     1  UNL1        0.0897
     16 C           4.2811   67.5306   61.9602 C.3     1  UNL1        0.0385
     17 C           4.1057   66.0556   62.3152 C.3     1  UNL1        0.0740
     18 N           4.6545   65.6923   63.6518 N.3     1  UNL1       -0.2684
     19 C           3.8084   66.0456   64.8062 C.3     1  UNL1        0.1046
     20 C           2.7606   64.9604   65.0840 C.3     1  UNL1        0.1595
     21 O           3.3885   63.7144   65.3351 O.3     1  UNL1       -0.3508
     22 C           4.1261   63.2959   64.2010 C.3     1  UNL1        0.1595
     23 C           5.2166   64.3327   63.8207 C.3     1  UNL1        0.1046
@<TRIPOS>BOND
     1     7     8   ar
     2     7    12   ar
     3     8     9   ar
     4     9    10   ar
     5    10     1    1
     6    10    11   ar
     7     1     2   ar
     8     1     6   ar
     9     2     3   ar
    10     3     4   ar
    11     4    13    1
    12     4     5   ar
    13    13    15    1
    14    13    14    1
    15    15    16    1
    16    16    17    1
    17    17    18    1
    18    18    19    1
    19    18    23    1
    20    19    20    1
    21    20    21    1
    22    21    22    1
    23    22    23    1
    24     5     6   ar
    25    11    12   ar



#	Name:			CHEMBL556603
#	Creating user name:	trannguyen
#	Creation time:		Thu Dec  1 16:45:11 2022


#	Modifying user name:	trannguyen
#	Modification time:	Thu Dec  1 16:45:11 2022

@<TRIPOS>MOLECULE
CHEMBL556603
 28 31 0 0 0
SMALL
GASTEIGER

@<TRIPOS>ATOM
      1 C           4.0529   68.7891   63.5909 C.ar    1  UNL1        0.1498
      2 C           5.2970   69.4100   63.3336 C.ar    1  UNL1        0.0389
      3 C           6.0840   69.9687   64.4102 C.ar    1  UNL1        0.0175
      4 C           5.4800   69.9460   65.7221 C.ar    1  UNL1        0.0484
      5 C           4.2740   69.3809   65.9678 C.ar    1  UNL1        0.0010
      6 C           3.6422   68.6901   64.9123 C.ar    1  UNL1        0.0349
      7 C           3.6474   69.7695   67.3924 C.3     1  UNL1        0.0909
      8 C           2.1267   69.5232   66.9058 C.3     1  UNL1        0.0123
      9 C           2.9852   70.1463   68.7836 C.3     1  UNL1        0.0739
     10 C           3.9064   70.5607   69.8595 C.3     1  UNL1        0.1491
     11 N           5.1523   70.8792   69.1995 N.4     1  UNL1        0.4809
     12 C           5.2414   72.3203   68.9068 C.3     1  UNL1        0.2116
     13 O           6.1592   70.5476   70.0511 O.3     1  UNL1       -0.1101
     14 C           5.1529   69.9829   68.0140 C.3     1  UNL1        0.1802
     15 N           6.0154   70.4221   66.9084 N.pl3   1  UNL1       -0.2650
     16 C           7.3425   71.0110   67.0127 C.3     1  UNL1        0.1174
     17 O           3.1919   68.3436   62.5969 O.3     1  UNL1       -0.4100
     18 N           4.0941   66.2855   61.6889 N.am    1  UNL1       -0.2496
     19 C           3.6498   67.5697   61.5236 C.2     1  UNL1        0.4099
     20 O           3.7023   68.0650   60.4102 O.2     1  UNL1       -0.2257
     21 H           4.4742   65.8031   60.8603 H       1  UNL1        0.1582
     22 C           3.6948   63.2026   66.6394 C.3     1  UNL1        0.0310
     23 C           3.8773   64.0804   65.4023 C.ar    1  UNL1       -0.0218
     24 C           2.9452   65.0836   65.0819 C.ar    1  UNL1       -0.0030
     25 C           3.0448   65.8074   63.8763 C.ar    1  UNL1        0.0144
     26 C           4.0895   65.5698   62.9644 C.ar    1  UNL1        0.0532
     27 C           5.0530   64.5754   63.3236 C.ar    1  UNL1        0.0144
     28 C           4.9438   63.8548   64.5224 C.ar    1  UNL1       -0.0030
@<TRIPOS>UNITY_ATOM_ATTR
11 1
charge 1
@<TRIPOS>BOND
     1    22    23    1
     2    23    24   ar
     3    23    28   ar
     4    24    25   ar
     5    25    26   ar
     6    26    18    1
     7    26    27   ar
     8    18    19   am
     9    18    21    1
    10    19    20    2
    11    19    17    1
    12    17     1    1
    13     1     2   ar
    14     1     6   ar
    15     2     3   ar
    16     3     4   ar
    17     4     5   ar
    18     4    15    1
    19     5     6   ar
    20     5     7    1
    21     7     8    1
    22     7     9    1
    23     7    14    1
    24     9    10    1
    25    10    11    1
    26    11    12    1
    27    11    13    1
    28    11    14    1
    29    14    15    1
    30    15    16    1
    31    27    28   ar



#	Name:			CHEMBL659
#	Creating user name:	trannguyen
#	Creation time:		Thu Dec  1 16:45:11 2022


#	Modifying user name:	trannguyen
#	Modification time:	Thu Dec  1 16:45:11 2022

@<TRIPOS>MOLECULE
CHEMBL659
 22 25 0 0 0
SMALL
GASTEIGER

@<TRIPOS>ATOM
      1 C           3.8465   61.0741   79.5148 C.ar    1  UNL1        0.1721
      2 C           3.4648   61.8797   80.5909 C.ar    1  UNL1        0.0397
      3 C           2.1560   62.3783   80.7031 C.ar    1  UNL1        0.0001
      4 C           1.1793   62.0851   79.7382 C.ar    1  UNL1       -0.0066
      5 C           1.5713   61.2875   78.6679 C.ar    1  UNL1        0.0187
      6 C           2.8811   60.8030   78.5579 C.ar    1  UNL1        0.1682
      7 O           3.0615   60.0335   77.4316 O.3     1  UNL1       -0.4757
      8 C           1.9310   60.3864   76.5934 C.3     1  UNL1        0.1761
      9 C           1.6156   59.2242   75.6501 C.3     1  UNL1        0.0779
     10 C           1.0891   57.9989   76.3972 C.3     1  UNL1        0.1358
     11 O           2.1547   57.3033   77.0293 O.3     1  UNL1       -0.3799
     12 C           0.0884   58.3403   77.4535 C.2     1  UNL1       -0.0015
     13 C          -0.0835   59.5768   77.9467 C.2     1  UNL1       -0.0213
     14 C           0.7454   60.7816   77.5257 C.3     1  UNL1        0.0780
     15 C          -0.1082   61.8645   76.8447 C.3     1  UNL1        0.0290
     16 C          -1.2327   62.4802   77.6840 C.3     1  UNL1        0.0732
     17 N          -0.7616   63.3400   78.7814 N.3     1  UNL1       -0.2677
     18 C          -1.8689   64.1884   79.2404 C.3     1  UNL1        0.0899
     19 C          -0.2395   62.5648   79.9201 C.3     1  UNL1        0.0990
     20 H           2.6082   57.9496   77.6044 H       1  UNL1        0.2108
     21 C           6.0000   61.2790   80.5098 C.3     1  UNL1        0.2526
     22 O           5.1472   60.6647   79.5540 O.3     1  UNL1       -0.4684
@<TRIPOS>BOND
     1    21    22    1
     2    22     1    1
     3     1     2   ar
     4     1     6   ar
     5     2     3   ar
     6     3     4   ar
     7     4     5   ar
     8     4    19    1
     9     5     6   ar
    10     5    14    1
    11     6     7    1
    12     7     8    1
    13     8     9    1
    14     8    14    1
    15     9    10    1
    16    10    11    1
    17    10    12    1
    18    11    20    1
    19    12    13    2
    20    14    13    1
    21    14    15    1
    22    15    16    1
    23    16    17    1
    24    17    18    1
    25    17    19    1



#	Name:			CHEMBL94
#	Creating user name:	trannguyen
#	Creation time:		Thu Dec  1 16:45:11 2022


#	Modifying user name:	trannguyen
#	Modification time:	Thu Dec  1 16:45:11 2022

@<TRIPOS>MOLECULE
CHEMBL94
 21 23 0 0 0
SMALL
GASTEIGER

@<TRIPOS>ATOM
      1 C           1.7188   59.2752   75.6126 C.ar    1  UNL1        0.1498
      2 C           2.0644   60.5843   75.9735 C.ar    1  UNL1        0.0389
      3 C           1.2093   61.3413   76.7865 C.ar    1  UNL1        0.0174
      4 C           0.0157   60.7832   77.2256 C.ar    1  UNL1        0.0450
      5 C          -0.3027   59.4773   76.8556 C.ar    1  UNL1       -0.0035
      6 C           0.5196   58.7134   76.0371 C.ar    1  UNL1        0.0347
      7 C          -1.6220   59.0951   77.4389 C.3     1  UNL1        0.0525
      8 C          -1.4982   57.8775   78.3615 C.3     1  UNL1        0.0075
      9 C          -2.7162   58.9137   76.3899 C.3     1  UNL1        0.0244
     10 C          -3.9348   59.4875   77.0826 C.3     1  UNL1        0.0740
     11 N          -3.4190   60.6891   77.7392 N.3     1  UNL1       -0.2567
     12 C          -4.2951   61.1307   78.8159 C.3     1  UNL1        0.0909
     13 C          -2.0471   60.3935   78.2128 C.3     1  UNL1        0.1380
     14 N          -0.9490   61.3815   78.0576 N.pl3   1  UNL1       -0.2945
     15 C          -1.3084   62.7494   77.7148 C.3     1  UNL1        0.1134
     16 O           2.5846   58.6201   74.7105 O.3     1  UNL1       -0.4103
     17 C           2.0156   59.7545   71.3270 C.3     1  UNL1        0.1140
     18 N           1.8868   59.3183   72.6900 N.am    1  UNL1       -0.2686
     19 C           2.9726   59.2240   73.5184 C.2     1  UNL1        0.4062
     20 O           4.0992   59.5942   73.2247 O.2     1  UNL1       -0.2260
     21 H           1.0291   58.8977   73.0182 H       1  UNL1        0.1528
@<TRIPOS>BOND
     1    17    18    1
     2    18    19   am
     3    18    21    1
     4    19    20    2
     5    19    16    1
     6    16     1    1
     7     1     2   ar
     8     1     6   ar
     9     2     3   ar
    10     3     4   ar
    11     4     5   ar
    12     4    14    1
    13     5     6   ar
    14     5     7    1
    15     7     8    1
    16     7     9    1
    17     7    13    1
    18     9    10    1
    19    10    11    1
    20    11    12    1
    21    11    13    1
    22    13    14    1
    23    14    15    1



#	Name:			CHEMBL95
#	Creating user name:	trannguyen
#	Creation time:		Thu Dec  1 16:45:11 2022


#	Modifying user name:	trannguyen
#	Modification time:	Thu Dec  1 16:45:11 2022

@<TRIPOS>MOLECULE
CHEMBL95
 17 19 0 0 0
SMALL
GASTEIGER

@<TRIPOS>ATOM
      1 N           1.8166   69.0541   66.5036 N.pl3   1  UNL1       -0.3572
      2 C           3.1684   69.2493   66.1200 C.ar    1  UNL1        0.0400
      3 C           3.5418   69.0616   64.7737 C.ar    1  UNL1        0.0043
      4 C           4.8689   69.3237   64.4237 C.ar    1  UNL1        0.0561
      5 N           5.7797   69.8168   65.2934 N.ar    1  UNL1       -0.2499
      6 C           5.4027   70.0762   66.5506 C.ar    1  UNL1        0.0820
      7 C           6.3499   70.6168   67.4104 C.ar    1  UNL1        0.0191
      8 C           6.0534   70.9307   68.7371 C.ar    1  UNL1        0.0015
      9 C           4.7742   70.7071   69.2210 C.ar    1  UNL1        0.0001
     10 C           3.8052   70.1673   68.3747 C.ar    1  UNL1        0.0027
     11 C           4.0985   69.8310   67.0276 C.ar    1  UNL1        0.0303
     12 C           5.3742   69.1327   63.0168 C.3     1  UNL1        0.0455
     13 C           4.5010   68.2027   62.1839 C.3     1  UNL1        0.0066
     14 C           3.0452   68.6242   62.3053 C.3     1  UNL1        0.0052
     15 C           2.5728   68.5092   63.7539 C.3     1  UNL1        0.0288
     16 H           1.3275   68.3678   65.9393 H       1  UNL1        0.1423
     17 H           1.7046   68.8485   67.4898 H       1  UNL1        0.1423
@<TRIPOS>BOND
     1     1     2    1
     2     1    16    1
     3     1    17    1
     4     2     3   ar
     5     2    11   ar
     6     3     4   ar
     7     3    15    1
     8     4     5   ar
     9     4    12    1
    10     5     6   ar
    11     6     7   ar
    12     6    11   ar
    13     7     8   ar
    14     8     9   ar
    15     9    10   ar
    16    10    11   ar
    17    12    13    1
    18    13    14    1
    19    14    15    1



