#	Name:			ZINC00039573
#	Creating user name:	trannguyen
#	Creation time:		Thu Dec  1 16:45:04 2022


#	Modifying user name:	trannguyen
#	Modification time:	Thu Dec  1 16:45:04 2022

@<TRIPOS>MOLECULE
ZINC00039573
 11 12 0 0 0
SMALL
GASTEIGER

@<TRIPOS>ATOM
      1 C           2.0582   57.8372   71.4286 C.3     1  UNL1        0.0525
      2 C           1.7086   59.2901   71.2335 C.ar    1  UNL1        0.0709
      3 C           0.5107   59.8070   71.7474 C.ar    1  UNL1        0.0822
      4 C           0.2234   61.1151   71.5640 C.ar    1  UNL1        0.2386
      5 N           1.0808   61.9247   70.8763 N.ar    1  UNL1       -0.0197
      6 C           2.2221   61.3913   70.3910 C.ar    1  UNL1        0.3536
      7 N           2.5152   60.0822   70.5788 N.ar    1  UNL1       -0.1867
      8 C           3.0171   62.3217   69.7059 C.ar    1  UNL1        0.1543
      9 S           2.0646   63.7561   69.8471 S.2     1  UNL1        0.0916
     10 N           0.8510   63.1875   70.6659 N.ar    1  UNL1        0.0517
     11 C          -1.0580   61.6832   72.1175 C.3     1  UNL1        0.1110
@<TRIPOS>UNITY_ATOM_ATTR
5 1
charge 1
@<TRIPOS>BOND
     1     1     2    1
     2     2     7   ar
     3     2     3   ar
     4     3     4   ar
     5     4     5   ar
     6     4    11    1
     7     5    10   ar
     8     5     6   ar
     9     6     7   ar
    10     6     8   ar
    11     8     9   ar
    12     9    10   ar
#	Name:			ZINC00071140
#	Creating user name:	trannguyen
#	Creation time:		Thu Dec  1 16:45:04 2022


#	Modifying user name:	trannguyen
#	Modification time:	Thu Dec  1 16:45:04 2022

@<TRIPOS>MOLECULE
ZINC00071140
 15 16 0 0 0
SMALL
GASTEIGER

@<TRIPOS>ATOM
      1 N           2.9321   64.4235   69.0318 N.ar    1  UNL1       -0.0286
      2 C           3.1488   63.2414   69.5463 C.ar    1  UNL1        0.4313
      3 N           1.9458   62.7151   69.8629 N.ar    1  UNL1       -0.1430
      4 N           1.0058   63.6916   69.4893 N.ar    1  UNL1        0.0049
      5 N           1.6743   64.6806   69.0016 N.ar    1  UNL1        0.1384
      6 C           1.6894   61.4632   70.4412 C.ar    1  UNL1        0.0906
      7 C           0.7169   61.3371   71.4237 C.ar    1  UNL1        0.0194
      8 C           0.4623   60.1018   71.9869 C.ar    1  UNL1        0.0015
      9 C           1.1837   58.9938   71.5819 C.ar    1  UNL1        0.0001
     10 C           2.1570   59.1176   70.6075 C.ar    1  UNL1        0.0015
     11 C           2.4116   60.3490   70.0362 C.ar    1  UNL1        0.0194
     12 C           3.5576   66.7777   68.8125 C.3     1  UNL1        0.0803
     13 C           3.9798   65.3298   68.5551 C.3     1  UNL1        0.2234
     14 C           5.2839   65.0387   69.3006 C.3     1  UNL1        0.0803
     15 C           4.1923   65.1195   67.0546 C.3     1  UNL1        0.0803
@<TRIPOS>UNITY_ATOM_ATTR
1 1
charge 1
@<TRIPOS>BOND
     1    12    13    1
     2    13    14    1
     3    13    15    1
     4    13     1    1
     5     1     5   ar
     6     1     2   ar
     7     2     3   ar
     8     3     4   ar
     9     3     6    1
    10     4     5   ar
    11     6    11   ar
    12     6     7   ar
    13     7     8   ar
    14     8     9   ar
    15     9    10   ar
    16    10    11   ar
#	Name:			ZINC00188639
#	Creating user name:	trannguyen
#	Creation time:		Thu Dec  1 16:45:04 2022


#	Modifying user name:	trannguyen
#	Modification time:	Thu Dec  1 16:45:04 2022

@<TRIPOS>MOLECULE
ZINC00188639
 20 22 0 0 0
SMALL
GASTEIGER

@<TRIPOS>ATOM
      1 C          -0.3279   61.2843   72.0203 C.3     1  UNL1        0.0310
      2 C           0.6259   62.0368   71.1287 C.ar    1  UNL1       -0.0218
      3 C           0.1297   62.8416   70.1144 C.ar    1  UNL1       -0.0030
      4 C           0.9891   63.5393   69.2886 C.ar    1  UNL1        0.0145
      5 C           2.3589   63.4346   69.4740 C.ar    1  UNL1        0.0516
      6 C           2.8677   62.6191   70.5009 C.ar    1  UNL1        0.0134
      7 C           1.9844   61.9200   71.3282 C.ar    1  UNL1       -0.0030
      8 C           4.3199   62.5130   70.6895 C.2     1  UNL1        0.0025
      9 C           5.1293   63.3908   70.0461 C.2     1  UNL1        0.0151
     10 C           4.5079   64.4107   69.1908 C.2     1  UNL1        0.0576
     11 C           5.1377   65.5912   68.9251 C.2     1  UNL1        0.0840
     12 N           3.2490   64.1296   68.6628 N.pl3   1  UNL1       -0.2849
     13 C           2.8834   64.5420   67.3054 C.3     1  UNL1        0.1173
     14 C           4.4391   66.6431   68.1833 C.ar    1  UNL1        0.2279
     15 C           3.4018   67.3586   68.7984 C.ar    1  UNL1        0.0695
     16 C           2.7547   68.3464   68.0841 C.ar    1  UNL1        0.0124
     17 C           3.1580   68.5952   66.7764 C.ar    1  UNL1        0.0758
     18 C           4.1871   67.8544   66.2287 C.ar    1  UNL1        0.2901
     19 N           4.7966   66.9186   66.9291 N.ar    1  UNL1       -0.1583
     20 C           5.8877   66.1596   66.3128 C.3     1  UNL1        0.4083
@<TRIPOS>UNITY_ATOM_ATTR
19 1
charge 1
@<TRIPOS>BOND
     1     1     2    1
     2     2     7   ar
     3     2     3   ar
     4     3     4   ar
     5     4     5   ar
     6     5    12    1
     7     5     6   ar
     8     6     7   ar
     9     6     8    1
    10     8     9    2
    11     9    10    1
    12    10    11    2
    13    10    12    1
    14    11    14    1
    15    14    19   ar
    16    14    15   ar
    17    15    16   ar
    18    16    17   ar
    19    17    18   ar
    20    18    19   ar
    21    19    20    1
    22    12    13    1
#	Name:			ZINC01286520
#	Creating user name:	trannguyen
#	Creation time:		Thu Dec  1 16:45:04 2022


#	Modifying user name:	trannguyen
#	Modification time:	Thu Dec  1 16:45:04 2022

@<TRIPOS>MOLECULE
ZINC01286520
 23 25 0 0 0
SMALL
GASTEIGER

@<TRIPOS>ATOM
      1 N           2.1127   60.3590   70.7205 N.ar    1  UNL1       -0.1899
      2 C           2.5807   59.2033   70.1543 C.ar    1  UNL1        0.1647
      3 N           3.3175   59.5424   69.1331 N.ar    1  UNL1       -0.1310
      4 N           3.3522   60.8219   69.0179 N.ar    1  UNL1       -0.1206
      5 C           2.6332   61.3762   69.9673 C.ar    1  UNL1        0.2131
      6 C           2.2923   57.7996   70.6207 C.3     1  UNL1        0.0757
      7 C          -0.0010   60.2649   71.7212 C.2     1  UNL1        0.1579
      8 N           1.2773   60.4758   71.8391 N.2     1  UNL1       -0.1574
      9 C          -1.7808   59.7596   76.3749 C.3     1  UNL1        0.0725
     10 C          -1.6613   60.1700   74.9298 C.ar    1  UNL1        0.1234
     11 C          -2.5534   60.9195   74.2494 C.ar    1  UNL1        0.0361
     12 C          -2.0562   61.0692   72.9424 C.ar    1  UNL1        0.0419
     13 C          -0.8749   60.3871   72.8913 C.ar    1  UNL1        0.1657
     14 O          -0.6497   59.8504   74.1076 O.2     1  UNL1       -0.4561
     15 S           2.3809   63.1018   70.2190 S.3     1  UNL1       -0.0692
     16 C           4.0338   63.7224   69.8203 C.3     1  UNL1        0.0914
     17 C           3.9135   64.9677   68.9801 C.ar    1  UNL1       -0.0109
     18 C           2.8275   65.8077   69.1410 C.ar    1  UNL1       -0.0029
     19 C           2.7193   66.9524   68.3740 C.ar    1  UNL1        0.0064
     20 C           3.6926   67.2519   67.4377 C.ar    1  UNL1        0.0345
     21 C           4.7765   66.4084   67.2734 C.ar    1  UNL1        0.0064
     22 C           4.8865   65.2666   68.0446 C.ar    1  UNL1       -0.0029
     23 BR          3.5418   68.8145   66.3834 Br      1  UNL1       -0.0490
@<TRIPOS>BOND
     1     9    10    1
     2    10    14   ar
     3    10    11   ar
     4    11    12   ar
     5    12    13   ar
     6    13    14   ar
     7    13     7    1
     8     7     8    2
     9     8     1    1
    10     1     5   ar
    11     1     2   ar
    12     2     3   ar
    13     2     6    1
    14     3     4   ar
    15     4     5   ar
    16     5    15    1
    17    15    16    1
    18    16    17    1
    19    17    22   ar
    20    17    18   ar
    21    18    19   ar
    22    19    20   ar
    23    20    21   ar
    24    20    23    1
    25    21    22   ar
#	Name:			ZINC01435433
#	Creating user name:	trannguyen
#	Creation time:		Thu Dec  1 16:45:04 2022


#	Modifying user name:	trannguyen
#	Modification time:	Thu Dec  1 16:45:04 2022

@<TRIPOS>MOLECULE
ZINC01435433
 28 29 0 0 0
SMALL
GASTEIGER

@<TRIPOS>ATOM
      1 C          -1.3072   61.5908   72.0812 C.2     1  UNL1        0.1177
      2 N          -0.2767   62.3780   72.1308 N.2     1  UNL1       -0.1775
      3 C          -1.3174   59.7081   75.3302 C.ar    1  UNL1        0.1724
      4 C          -0.8672   60.3300   74.1807 C.ar    1  UNL1        0.0417
      5 C          -1.7823   60.9205   73.3053 C.ar    1  UNL1        0.0243
      6 C          -3.1492   60.8691   73.5902 C.ar    1  UNL1        0.0106
      7 C          -3.5915   60.2414   74.7362 C.ar    1  UNL1        0.0668
      8 C          -2.6815   59.6601   75.6080 C.ar    1  UNL1        0.1731
      9 O          -3.1225   59.0428   76.7360 O.3     1  UNL1       -0.5026
     10 I          -5.6414   60.1661   75.1618 I       1  UNL1       -0.0393
     11 H          -2.5092   58.6499   77.3254 H       1  UNL1        0.2923
     12 O          -0.4287   59.1377   76.1872 O.3     1  UNL1       -0.4724
     13 C           1.8900   59.8092   76.3024 C.3     1  UNL1        0.0512
     14 C           0.4793   60.0137   76.8582 C.3     1  UNL1        0.2057
     15 N           0.1748   63.0150   70.9675 N.am    1  UNL1       -0.2028
     16 C           1.4857   62.9974   70.6551 C.2     1  UNL1        0.2856
     17 O           2.2748   62.4299   71.3811 O.2     1  UNL1       -0.2693
     18 H          -0.4655   63.4756   70.3783 H       1  UNL1        0.1774
     19 C           1.9714   63.6826   69.4038 C.3     1  UNL1        0.2911
     20 O           2.5531   64.9422   69.7456 O.3     1  UNL1       -0.4662
     21 C           3.5012   65.4326   68.9045 C.ar    1  UNL1        0.1312
     22 C           4.7661   64.8635   68.8756 C.ar    1  UNL1        0.0118
     23 C           5.7263   65.3605   68.0158 C.ar    1  UNL1       -0.0013
     24 C           5.4310   66.4310   67.1920 C.ar    1  UNL1       -0.0004
     25 C           4.1729   67.0035   67.2229 C.ar    1  UNL1       -0.0013
     26 C           3.2074   66.5069   68.0771 C.ar    1  UNL1        0.0118
     27 C           1.8362   67.1312   68.1099 C.3     1  UNL1        0.0342
     28 C           5.0904   63.7005   69.7775 C.3     1  UNL1        0.0342
@<TRIPOS>BOND
     1    13    14    1
     2    14    12    1
     3    12     3    1
     4     3     8   ar
     5     3     4   ar
     6     4     5   ar
     7     5     6   ar
     8     5     1    1
     9     6     7   ar
    10     7     8   ar
    11     7    10    1
    12     8     9    1
    13     1     2    2
    14     2    15    1
    15    15    16   am
    16    16    17    2
    17    16    19    1
    18    19    20    1
    19    20    21    1
    20    21    26   ar
    21    21    22   ar
    22    22    23   ar
    23    22    28    1
    24    23    24   ar
    25    24    25   ar
    26    25    26   ar
    27    26    27    1
    28     9    11    1
    29    15    18    1
#	Name:			ZINC01565207
#	Creating user name:	trannguyen
#	Creation time:		Thu Dec  1 16:45:04 2022


#	Modifying user name:	trannguyen
#	Modification time:	Thu Dec  1 16:45:04 2022

@<TRIPOS>MOLECULE
ZINC01565207
 21 23 0 0 0
SMALL
GASTEIGER

@<TRIPOS>ATOM
      1 C           3.6035   57.8049   69.9277 C.3     1  UNL1        0.1676
      2 C           1.9834   59.2472   70.9989 C.3     1  UNL1        0.1340
      3 C           1.1873   60.5186   70.8655 C.ar    1  UNL1        0.0421
      4 C           1.4713   61.4569   69.8980 C.ar    1  UNL1       -0.0100
      5 C           0.7137   62.6159   69.8153 C.ar    1  UNL1       -0.0038
      6 C          -0.3276   62.8372   70.6952 C.ar    1  UNL1        0.0009
      7 C          -0.6195   61.8999   71.6663 C.ar    1  UNL1        0.0139
      8 C           0.1367   60.7400   71.7539 C.ar    1  UNL1        0.0427
      9 N          -0.1565   59.7906   72.7356 N.pl3   1  UNL1       -0.3571
     10 C           2.5942   61.2611   68.9118 C.3     1  UNL1        0.0997
     11 C           3.5439   60.1721   69.4118 C.3     1  UNL1        0.1146
     12 N           2.7307   58.9872   69.7570 N.4     1  UNL1        0.2843
     13 H           0.3790   58.9670   72.7993 H       1  UNL1        0.1423
     14 H          -0.8986   59.9451   73.3638 H       1  UNL1        0.1423
     15 H           2.0716   58.8005   69.0013 H       1  UNL1        0.2073
     16 C           3.3534   62.5534   68.7547 C.ar    1  UNL1       -0.0127
     17 C           3.2712   63.2639   67.5718 C.ar    1  UNL1       -0.0038
     18 C           3.9723   64.4464   67.4258 C.ar    1  UNL1       -0.0003
     19 C           4.7468   64.9238   68.4664 C.ar    1  UNL1       -0.0000
     20 C           4.8289   64.2133   69.6493 C.ar    1  UNL1       -0.0003
     21 C           4.1322   63.0281   69.7935 C.ar    1  UNL1       -0.0038
@<TRIPOS>UNITY_ATOM_ATTR
12 1
charge 1
@<TRIPOS>BOND
     1     1    12    1
     2     2     3    1
     3     2    12    1
     4     3     8   ar
     5     3     4   ar
     6     4     5   ar
     7     4    10    1
     8     5     6   ar
     9     6     7   ar
    10     7     8   ar
    11     8     9    1
    12    10    11    1
    13    10    16    1
    14    11    12    1
    15    16    21   ar
    16    16    17   ar
    17    17    18   ar
    18    18    19   ar
    19    19    20   ar
    20    20    21   ar
    21     9    13    1
    22     9    14    1
    23    12    15    1
#	Name:			ZINC01605050
#	Creating user name:	trannguyen
#	Creation time:		Thu Dec  1 16:45:04 2022


#	Modifying user name:	trannguyen
#	Modification time:	Thu Dec  1 16:45:04 2022

@<TRIPOS>MOLECULE
ZINC01605050
 14 15 0 0 0
SMALL
GASTEIGER

@<TRIPOS>ATOM
      1 C           0.8854   59.4275   71.7072 C.3     1  UNL1        0.1352
      2 N           1.5175   60.6441   71.1906 N.ar    1  UNL1       -0.2762
      3 C           1.1483   61.8589   71.6806 C.ar    1  UNL1        0.0877
      4 C           1.7410   62.9783   71.1945 C.ar    1  UNL1        0.1105
      5 C           2.7206   62.8502   70.1892 C.ar    1  UNL1        0.3260
      6 N           3.0518   61.6440   69.7467 N.ar    1  UNL1       -0.1296
      7 C           2.4600   60.5541   70.2345 C.ar    1  UNL1        0.3549
      8 O           2.7785   59.4568   69.8076 O.2     1  UNL1       -0.2443
      9 N           3.3332   63.9682   69.6740 N.ar    1  UNL1       -0.1230
     10 C           2.5935   65.0223   69.3511 C.ar    1  UNL1        0.2967
     11 C           3.1775   66.1614   68.8371 C.ar    1  UNL1        0.0764
     12 C           4.5523   66.1928   68.6488 C.ar    1  UNL1        0.0127
     13 C           5.2955   65.0718   68.9915 C.ar    1  UNL1        0.0764
     14 C           4.6502   63.9666   69.5059 C.ar    1  UNL1        0.2967
@<TRIPOS>UNITY_ATOM_ATTR
9 1
charge 1
@<TRIPOS>BOND
     1     1     2    1
     2     2     7   ar
     3     2     3   ar
     4     3     4   ar
     5     4     5   ar
     6     5     6   ar
     7     5     9    1
     8     6     7   ar
     9     7     8    2
    10     9    14   ar
    11     9    10   ar
    12    10    11   ar
    13    11    12   ar
    14    12    13   ar
    15    13    14   ar
#	Name:			ZINC01662131
#	Creating user name:	trannguyen
#	Creation time:		Thu Dec  1 16:45:04 2022


#	Modifying user name:	trannguyen
#	Modification time:	Thu Dec  1 16:45:04 2022

@<TRIPOS>MOLECULE
ZINC01662131
 12 13 0 0 0
SMALL
GASTEIGER

@<TRIPOS>ATOM
      1 C          -8.4710   63.6011   76.4630 C.3     1  UNL1        0.1702
      2 N          -7.8640   63.1543   75.2022 N.4     1  UNL1        0.2981
      3 C          -8.8604   62.4172   74.4091 C.3     1  UNL1        0.1085
      4 C          -9.3715   61.2055   75.1862 C.3     1  UNL1        0.0612
      5 C          -8.1875   60.2762   75.4761 C.3     1  UNL1        0.0120
      6 C          -7.1432   61.0581   76.2731 C.3     1  UNL1        0.0558
      7 C          -6.7068   62.3024   75.4911 C.3     1  UNL1        0.0661
      8 C          -5.6979   63.0624   76.3655 C.3     1  UNL1        0.1196
      9 C          -5.3709   64.3845   75.7087 C.2     1  UNL1        0.1624
     10 O          -4.2294   64.7515   75.5655 O.2     1  UNL1       -0.2956
     11 C          -6.5376   65.2287   75.2359 C.3     1  UNL1        0.1255
     12 C          -7.4575   64.3267   74.4099 C.3     1  UNL1        0.1164
@<TRIPOS>UNITY_ATOM_ATTR
2 1
charge 1
@<TRIPOS>BOND
     1     1     2    1
     2     2     7    1
     3     2    12    1
     4     2     3    1
     5     3     4    1
     6     4     5    1
     7     5     6    1
     8     6     7    1
     9     7     8    1
    10     8     9    1
    11     9    10    2
    12     9    11    1
    13    11    12    1
#	Name:			ZINC01690486
#	Creating user name:	trannguyen
#	Creation time:		Thu Dec  1 16:45:04 2022


#	Modifying user name:	trannguyen
#	Modification time:	Thu Dec  1 16:45:04 2022

@<TRIPOS>MOLECULE
ZINC01690486
 18 20 0 0 0
SMALL
GASTEIGER

@<TRIPOS>ATOM
      1 C           4.3005   66.8436   67.1802 C.ar    1  UNL1       -0.0003
      2 C           3.6513   67.2484   68.3329 C.ar    1  UNL1       -0.0000
      3 C           3.0865   66.3152   69.1767 C.ar    1  UNL1       -0.0003
      4 C           3.1690   64.9558   68.8682 C.ar    1  UNL1       -0.0038
      5 C           3.8243   64.5583   67.7058 C.ar    1  UNL1       -0.0178
      6 C           4.3865   65.4984   66.8683 C.ar    1  UNL1       -0.0039
      7 C           3.7545   63.0526   67.6369 C.3     1  UNL1        0.0527
      8 C           2.9979   62.6134   68.8670 C.ar    1  UNL1       -0.0164
      9 C           2.6556   63.7594   69.5800 C.ar    1  UNL1       -0.0008
     10 C           1.9474   63.6382   70.7785 C.ar    1  UNL1        0.0376
     11 C           1.5830   62.3893   71.2427 C.ar    1  UNL1        0.1464
     12 C           1.9252   61.2472   70.5190 C.ar    1  UNL1        0.0754
     13 C           2.6331   61.3672   69.3309 C.ar    1  UNL1        0.0132
     14 N           1.5555   59.9834   70.9894 N.pl3   1  UNL1       -0.3547
     15 O           0.8898   62.2731   72.4071 O.3     1  UNL1       -0.5043
     16 H           1.0535   59.8992   71.8321 H       1  UNL1        0.1424
     17 H           1.7972   59.1777   70.4779 H       1  UNL1        0.1424
     18 H           0.6596   63.0400   72.8938 H       1  UNL1        0.2922
@<TRIPOS>BOND
     1     1     6   ar
     2     1     2   ar
     3     2     3   ar
     4     3     4   ar
     5     4     9    1
     6     4     5   ar
     7     5     6   ar
     8     5     7    1
     9     7     8    1
    10     8    13   ar
    11     8     9   ar
    12     9    10   ar
    13    10    11   ar
    14    11    12   ar
    15    11    15    1
    16    12    13   ar
    17    12    14    1
    18    14    16    1
    19    14    17    1
    20    15    18    1
#	Name:			ZINC01701190
#	Creating user name:	trannguyen
#	Creation time:		Thu Dec  1 16:45:04 2022


#	Modifying user name:	trannguyen
#	Modification time:	Thu Dec  1 16:45:04 2022

@<TRIPOS>MOLECULE
ZINC01701190
 11 10 0 0 0
SMALL
GASTEIGER

@<TRIPOS>ATOM
      1 C           5.5453   65.0941   68.8647 C.3     1  UNL1        0.0274
      2 C           4.5332   65.9289   68.1231 C.2     1  UNL1       -0.0333
      3 C           3.4282   66.3387   68.7407 C.2     1  UNL1        0.0696
      4 C           4.7727   66.2996   66.6822 C.3     1  UNL1        0.0271
      5 C           2.4694   67.1369   68.0378 C.1     1  UNL1        0.1004
      6 N           1.7087   67.7701   67.4801 N.1     1  UNL1       -0.1908
      7 C           4.8199   64.1271   69.8025 C.3     1  UNL1        0.0297
      8 C           2.3410   63.1033   70.6744 C.3     1  UNL1        0.0260
      9 C           2.9275   62.6481   69.3629 C.2     1  UNL1       -0.0478
     10 C           4.1072   63.0777   68.9888 C.2     1  UNL1       -0.0342
     11 C           2.1571   61.6987   68.4820 C.3     1  UNL1        0.0260
@<TRIPOS>BOND
     1     8     9    1
     2     9    10    2
     3     9    11    1
     4    10     7    1
     5     7     1    1
     6     1     2    1
     7     2     3    2
     8     2     4    1
     9     3     5    1
    10     5     6    3
#	Name:			ZINC01704418
#	Creating user name:	trannguyen
#	Creation time:		Thu Dec  1 16:45:04 2022


#	Modifying user name:	trannguyen
#	Modification time:	Thu Dec  1 16:45:04 2022

@<TRIPOS>MOLECULE
ZINC01704418
 40 43 0 0 0
SMALL
GASTEIGER

@<TRIPOS>ATOM
      1 C          -1.8719   60.5788   74.1550 C.ar    1  UNL1        0.0683
      2 C          -3.1303   60.9894   73.7590 C.ar    1  UNL1        0.0498
      3 C          -4.2575   60.5016   74.4258 C.ar    1  UNL1        0.1284
      4 C          -2.9657   59.2168   75.8633 C.ar    1  UNL1        0.1826
      5 C          -1.7763   59.6660   75.2378 C.ar    1  UNL1        0.1301
      6 N          -0.5898   59.2344   75.6649 N.ar    1  UNL1       -0.2395
      7 C          -0.5240   58.3883   76.6781 C.ar    1  UNL1        0.0990
      8 C          -1.7090   57.9326   77.3027 C.ar    1  UNL1        0.1005
      9 N          -2.8894   58.3562   76.8852 N.ar    1  UNL1       -0.2237
     10 N          -5.5157   60.9195   74.0211 N.pl3   1  UNL1       -0.3425
     11 N          -4.2205   59.6276   75.4674 N.ar    1  UNL1       -0.2107
     12 H          -5.6070   61.5520   73.2722 H       1  UNL1        0.1437
     13 H          -6.3179   60.5838   74.4825 H       1  UNL1        0.1437
     14 C          -1.6261   56.9805   78.4341 C.ar    1  UNL1        0.0192
     15 C          -1.5508   57.4547   79.7438 C.ar    1  UNL1        0.0024
     16 C          -1.4671   56.5636   80.7935 C.ar    1  UNL1        0.0114
     17 C          -1.4590   55.2006   80.5489 C.ar    1  UNL1        0.0577
     18 C          -1.5340   54.7244   79.2508 C.ar    1  UNL1        0.0114
     19 C          -1.6171   55.6066   78.1936 C.ar    1  UNL1        0.0024
     20 CL         -1.3540   54.0848   81.8746 Cl      1  UNL1       -0.0822
     21 C           0.7940   57.9114   77.1577 C.ar    1  UNL1        0.0192
     22 C           1.3732   56.7737   76.5961 C.ar    1  UNL1        0.0024
     23 C           2.6027   56.3363   77.0435 C.ar    1  UNL1        0.0114
     24 C           3.2572   57.0191   78.0547 C.ar    1  UNL1        0.0577
     25 C           2.6844   58.1462   78.6194 C.ar    1  UNL1        0.0114
     26 C           1.4575   58.5951   78.1763 C.ar    1  UNL1        0.0024
     27 CL          4.8015   56.4598   78.6172 Cl      1  UNL1       -0.0822
     28 N          -0.7344   61.0450   73.5124 N.pl3   1  UNL1       -0.3327
     29 H          -0.0934   61.6138   73.9971 H       1  UNL1        0.1468
     30 C          -0.4868   60.6910   72.1125 C.3     1  UNL1        0.0693
     31 C           0.7112   59.7429   72.0304 C.3     1  UNL1        0.0212
     32 C          -0.1892   61.9596   71.3107 C.3     1  UNL1        0.0256
     33 C           1.2702   62.3668   71.5235 C.3     1  UNL1        0.0626
     34 C           1.7033   63.3159   70.4043 C.3     1  UNL1        0.1053
     35 N           2.7732   62.6649   69.6193 N.4     1  UNL1        0.2758
     36 H           3.3976   62.1704   70.2564 H       1  UNL1        0.2067
     37 C           2.6825   60.2920   69.0321 C.3     1  UNL1        0.0670
     38 C           2.1856   61.6937   68.6727 C.3     1  UNL1        0.1055
     39 C           3.5491   63.6836   68.8811 C.3     1  UNL1        0.1055
     40 C           4.8511   63.9520   69.6386 C.3     1  UNL1        0.0670
@<TRIPOS>UNITY_ATOM_ATTR
35 1
charge 1
@<TRIPOS>BOND
     1    37    38    1
     2    38    35    1
     3    39    40    1
     4    39    35    1
     5    34    33    1
     6    34    35    1
     7    33    32    1
     8    32    30    1
     9    30    31    1
    10    30    28    1
    11    28     1    1
    12     1     5   ar
    13     1     2   ar
    14     2     3   ar
    15     3    10    1
    16     3    11   ar
    17     4     9   ar
    18     4     5   ar
    19     4    11   ar
    20     5     6   ar
    21     6     7   ar
    22     7     8   ar
    23     7    21    1
    24     8     9   ar
    25     8    14    1
    26    14    19   ar
    27    14    15   ar
    28    15    16   ar
    29    16    17   ar
    30    17    18   ar
    31    17    20    1
    32    18    19   ar
    33    21    26   ar
    34    21    22   ar
    35    22    23   ar
    36    23    24   ar
    37    24    25   ar
    38    24    27    1
    39    25    26   ar
    40    28    29    1
    41    10    12    1
    42    10    13    1
    43    35    36    1
#	Name:			ZINC01717103
#	Creating user name:	trannguyen
#	Creation time:		Thu Dec  1 16:45:04 2022


#	Modifying user name:	trannguyen
#	Modification time:	Thu Dec  1 16:45:04 2022

@<TRIPOS>MOLECULE
ZINC01717103
 11 11 0 0 0
SMALL
GASTEIGER

@<TRIPOS>ATOM
      1 C           4.9510   66.3108   67.1453 C.ar    1  UNL1        0.0789
      2 C           4.0853   66.6844   68.1609 C.ar    1  UNL1        0.0494
      3 C           3.3063   67.8225   67.9802 C.ar    1  UNL1        0.2047
      4 C           3.4232   68.5381   66.7972 C.ar    1  UNL1        0.3270
      5 N           4.2595   68.1491   65.8556 N.ar    1  UNL1       -0.1558
      6 C           5.0084   67.0724   65.9933 C.ar    1  UNL1        0.2903
      7 O           2.4426   68.2275   68.9483 O.3     1  UNL1       -0.5008
      8 H           2.3690   67.7392   69.7446 H       1  UNL1        0.2924
      9 C           4.3551   68.9305   64.6201 C.3     1  UNL1        0.3401
     10 C           5.6326   68.5458   63.8710 C.3     1  UNL1        0.1798
     11 CL          5.5920   69.2511   62.2122 Cl      1  UNL1       -0.1060
@<TRIPOS>UNITY_ATOM_ATTR
5 1
charge 1
@<TRIPOS>BOND
     1     1     6   ar
     2     1     2   ar
     3     2     3   ar
     4     3     4   ar
     5     3     7    1
     6     4     5   ar
     7     5     6   ar
     8     5     9    1
     9     9    10    1
    10    10    11    1
    11     7     8    1
#	Name:			ZINC01836026
#	Creating user name:	trannguyen
#	Creation time:		Thu Dec  1 16:45:04 2022


#	Modifying user name:	trannguyen
#	Modification time:	Thu Dec  1 16:45:04 2022

@<TRIPOS>MOLECULE
ZINC01836026
 42 47 0 0 0
SMALL
GASTEIGER

@<TRIPOS>ATOM
      1 C           0.4701   59.3081   71.7956 C.3     1  UNL1        0.1136
      2 C           1.0707   60.5113   71.1060 C.ar    1  UNL1        0.0841
      3 C           2.1945   60.4456   70.3628 C.ar    1  UNL1        0.0025
      4 C           2.4693   61.7873   69.8652 C.ar    1  UNL1        0.0161
      5 C           3.4638   62.3460   69.0583 C.ar    1  UNL1        0.0381
      6 C           3.4329   63.6950   68.7696 C.ar    1  UNL1        0.1391
      7 C           2.4101   64.4971   69.2696 C.ar    1  UNL1        0.0384
      8 C           1.4217   63.9583   70.0621 C.ar    1  UNL1        0.0201
      9 C           1.4372   62.6022   70.3698 C.ar    1  UNL1        0.0564
     10 N           0.6061   61.7935   71.1193 N.ar    1  UNL1       -0.3521
     11 C           2.9719   59.1753   70.1302 C.3     1  UNL1        0.0885
     12 C           2.0744   57.9943   70.5259 C.3     1  UNL1        0.1076
     13 N           1.4927   58.2402   71.8620 N.4     1  UNL1        0.2578
     14 H          -0.2017   62.0973   71.5930 H       1  UNL1        0.1658
     15 H           1.0594   57.3818   72.2023 H       1  UNL1        0.2040
     16 H           2.2359   58.5351   72.4953 H       1  UNL1        0.2040
     17 C           0.6228   60.1702   75.4674 C.ar    1  UNL1        0.0550
     18 C           1.0044   59.8276   74.1844 C.ar    1  UNL1        0.0039
     19 C           0.0510   59.6814   73.1942 C.ar    1  UNL1        0.0324
     20 C          -1.2862   59.8825   73.4836 C.ar    1  UNL1        0.0047
     21 C          -1.6735   60.2191   74.7660 C.ar    1  UNL1        0.0366
     22 C          -0.7184   60.3669   75.7615 C.ar    1  UNL1        0.1382
     23 O          -1.0963   60.7044   77.0226 O.3     1  UNL1       -0.4716
     24 C          -1.7694   59.7029   77.7881 C.3     1  UNL1        0.2525
     25 C           1.6628   60.3294   76.5463 C.3     1  UNL1        0.2350
     26 O           2.6831   59.3440   76.3736 O.3     1  UNL1       -0.4709
     27 C           5.5301   55.9752   78.4638 C.3     1  UNL1        0.0308
     28 C           4.6048   57.1609   78.5593 C.ar    1  UNL1       -0.0229
     29 C           4.2958   57.6982   79.7956 C.ar    1  UNL1       -0.0044
     30 C           3.4478   58.7861   79.8866 C.ar    1  UNL1        0.0028
     31 C           2.9063   59.3392   78.7420 C.ar    1  UNL1        0.0366
     32 C           3.2144   58.8018   77.5009 C.ar    1  UNL1        0.1347
     33 C           4.0612   57.7063   77.4126 C.ar    1  UNL1        0.0082
     34 C           4.3926   57.1157   76.0663 C.3     1  UNL1        0.0339
     35 O           4.4023   64.2426   67.9888 O.3     1  UNL1       -0.4706
     36 C           4.9796   65.4706   68.4369 C.3     1  UNL1        0.2320
     37 C           4.6174   66.5753   67.4779 C.ar    1  UNL1        0.0212
     38 C           5.2527   66.6635   66.2534 C.ar    1  UNL1       -0.0007
     39 C           4.9174   67.6742   65.3720 C.ar    1  UNL1       -0.0002
     40 C           3.9532   68.6021   65.7189 C.ar    1  UNL1       -0.0000
     41 C           3.3216   68.5170   66.9455 C.ar    1  UNL1       -0.0002
     42 C           3.6539   67.5037   67.8252 C.ar    1  UNL1       -0.0007
@<TRIPOS>UNITY_ATOM_ATTR
13 1
charge 1
@<TRIPOS>BOND
     1    27    28    1
     2    28    33   ar
     3    28    29   ar
     4    29    30   ar
     5    30    31   ar
     6    31    32   ar
     7    32    33   ar
     8    32    26    1
     9    33    34    1
    10    26    25    1
    11    25    17    1
    12    17    22   ar
    13    17    18   ar
    14    18    19   ar
    15    19    20   ar
    16    19     1    1
    17    20    21   ar
    18    21    22   ar
    19    22    23    1
    20    23    24    1
    21     1     2    1
    22     1    13    1
    23     2    10   ar
    24     2     3   ar
    25     3     4   ar
    26     3    11    1
    27     4     9   ar
    28     4     5   ar
    29     5     6   ar
    30     6     7   ar
    31     6    35    1
    32     7     8   ar
    33     8     9   ar
    34     9    10   ar
    35    35    36    1
    36    36    37    1
    37    37    42   ar
    38    37    38   ar
    39    38    39   ar
    40    39    40   ar
    41    40    41   ar
    42    41    42   ar
    43    11    12    1
    44    12    13    1
    45    10    14    1
    46    13    15    1
    47    13    16    1
#	Name:			ZINC02037001
#	Creating user name:	trannguyen
#	Creation time:		Thu Dec  1 16:45:04 2022


#	Modifying user name:	trannguyen
#	Modification time:	Thu Dec  1 16:45:04 2022

@<TRIPOS>MOLECULE
ZINC02037001
 29 32 0 0 0
SMALL
GASTEIGER

@<TRIPOS>ATOM
      1 C           0.4894   60.0182   73.7137 C.3     1  UNL1        0.2279
      2 O           0.5460   59.0383   72.6688 O.3     1  UNL1       -0.3249
      3 C           1.1107   59.6814   71.5083 C.3     1  UNL1        0.1807
      4 C           0.8557   61.1848   71.7818 C.3     1  UNL1        0.1964
      5 O           1.0271   61.2557   73.2178 O.3     1  UNL1       -0.3217
      6 C           1.8886   62.0552   71.0633 C.3     1  UNL1        0.0825
      7 C           2.3997   61.3202   69.8221 C.3     1  UNL1        0.0577
      8 C           3.4181   62.2031   69.0954 C.3     1  UNL1        0.0121
      9 C           2.7580   63.5356   68.7305 C.3     1  UNL1        0.0610
     10 C           2.2358   64.2068   70.0028 C.3     1  UNL1        0.1021
     11 N           1.2538   63.3256   70.6632 N.4     1  UNL1        0.2519
     12 H           0.8867   63.7933   71.4919 H       1  UNL1        0.2034
     13 H           0.4972   63.1253   70.0091 H       1  UNL1        0.2034
     14 C          -3.5692   60.5972   74.9202 C.ar    1  UNL1        0.1387
     15 C          -2.6702   59.9811   75.7786 C.ar    1  UNL1        0.0367
     16 C          -1.3587   59.7954   75.3864 C.ar    1  UNL1        0.0038
     17 C          -0.9418   60.2226   74.1392 C.ar    1  UNL1        0.0328
     18 C          -1.8343   60.8420   73.2841 C.ar    1  UNL1        0.0038
     19 C          -3.1482   61.0254   73.6696 C.ar    1  UNL1        0.0367
     20 C          -5.8357   59.9024   74.7413 C.3     1  UNL1        0.2525
     21 O          -4.8597   60.7816   75.3039 O.3     1  UNL1       -0.4714
     22 C           1.3057   59.5507   74.8911 C.ar    1  UNL1        0.0328
     23 C           1.5932   60.4253   75.9225 C.ar    1  UNL1        0.0038
     24 C           2.3365   59.9976   77.0056 C.ar    1  UNL1        0.0367
     25 C           2.8037   58.6921   77.0525 C.ar    1  UNL1        0.1387
     26 C           2.5187   57.8181   76.0136 C.ar    1  UNL1        0.0367
     27 C           1.7705   58.2493   74.9352 C.ar    1  UNL1        0.0038
     28 O           3.5399   58.2705   78.1142 O.3     1  UNL1       -0.4714
     29 C           4.0147   56.9231   78.0803 C.3     1  UNL1        0.2525
@<TRIPOS>UNITY_ATOM_ATTR
11 1
charge 1
@<TRIPOS>BOND
     1    20    21    1
     2    21    14    1
     3    14    19   ar
     4    14    15   ar
     5    15    16   ar
     6    16    17   ar
     7    17    18   ar
     8    17     1    1
     9    18    19   ar
    10     1     5    1
    11     1     2    1
    12     1    22    1
    13     2     3    1
    14     3     4    1
    15     4     5    1
    16     4     6    1
    17     6     7    1
    18     6    11    1
    19     7     8    1
    20     8     9    1
    21     9    10    1
    22    10    11    1
    23    22    27   ar
    24    22    23   ar
    25    23    24   ar
    26    24    25   ar
    27    25    26   ar
    28    25    28    1
    29    26    27   ar
    30    28    29    1
    31    11    12    1
    32    11    13    1
#	Name:			ZINC02096882
#	Creating user name:	trannguyen
#	Creation time:		Thu Dec  1 16:45:04 2022


#	Modifying user name:	trannguyen
#	Modification time:	Thu Dec  1 16:45:04 2022

@<TRIPOS>MOLECULE
ZINC02096882
 38 41 0 0 0
SMALL
GASTEIGER

@<TRIPOS>ATOM
      1 C          -4.2040   60.4397   74.8559 C.ar    1  UNL1        0.1675
      2 N          -4.0668   61.2072   73.8118 N.ar    1  UNL1       -0.1307
      3 N          -2.8286   61.2795   73.4753 N.ar    1  UNL1       -0.1220
      4 C          -2.0998   60.5557   74.2931 C.ar    1  UNL1        0.1973
      5 N          -2.9559   59.9909   75.1983 N.ar    1  UNL1       -0.2711
      6 C          -2.6246   59.1338   76.2577 C.ar    1  UNL1        0.0670
      7 C          -2.1275   59.6549   77.4444 C.ar    1  UNL1        0.0176
      8 C          -1.8078   58.8087   78.4883 C.ar    1  UNL1        0.0015
      9 C          -1.9710   57.4428   78.3477 C.ar    1  UNL1        0.0001
     10 C          -2.4605   56.9204   77.1647 C.ar    1  UNL1        0.0015
     11 C          -2.7876   57.7622   76.1196 C.ar    1  UNL1        0.0176
     12 C          -5.4969   60.1027   75.5530 C.3     1  UNL1        0.1545
     13 N          -6.6181   60.3257   74.6371 N.pl3   1  UNL1       -0.3267
     14 H          -6.4962   60.1958   73.6688 H       1  UNL1        0.1472
     15 C          -7.3774   63.0506   74.3360 C.3     1  UNL1        0.0323
     16 C          -8.2718   62.0435   75.0121 C.ar    1  UNL1       -0.0079
     17 C          -9.5033   62.4320   75.5023 C.ar    1  UNL1        0.0084
     18 C         -10.3222   61.5093   76.1291 C.ar    1  UNL1        0.0574
     19 C          -9.9129   60.1938   76.2607 C.ar    1  UNL1        0.0126
     20 C          -8.6853   59.7986   75.7670 C.ar    1  UNL1        0.0149
     21 C          -7.8610   60.7229   75.1377 C.ar    1  UNL1        0.0409
     22 CL        -11.8661   62.0027   76.7509 Cl      1  UNL1       -0.0823
     23 S          -0.3514   60.3458   74.2318 S.3     1  UNL1       -0.0669
     24 C          -0.1324   60.0494   72.4597 C.3     1  UNL1        0.1325
     25 C           0.9370   58.9754   72.2506 C.3     1  UNL1        0.0219
     26 C           0.2998   61.3266   71.7865 C.2     1  UNL1        0.2512
     27 O          -0.5316   62.0852   71.3341 O.2     1  UNL1       -0.2725
     28 N           1.6102   61.6259   71.6872 N.am    1  UNL1       -0.2051
     29 H           2.2849   61.0102   72.0545 H       1  UNL1        0.1773
     30 N           2.0121   62.8131   71.0614 N.2     1  UNL1       -0.1776
     31 C           3.0175   62.8061   70.2411 C.2     1  UNL1        0.1176
     32 C           3.4405   64.0557   69.5825 C.ar    1  UNL1        0.0208
     33 C           4.7967   64.3070   69.3600 C.ar    1  UNL1        0.0039
     34 C           5.1858   65.4748   68.7389 C.ar    1  UNL1        0.0297
     35 C           4.2352   66.4034   68.3449 C.ar    1  UNL1        0.1401
     36 C           2.8887   66.1624   68.5681 C.ar    1  UNL1        0.0297
     37 C           2.4871   64.9958   69.1835 C.ar    1  UNL1        0.0039
     38 F           4.6228   67.5484   67.7415 F       1  UNL1       -0.2042
@<TRIPOS>BOND
     1    15    16    1
     2    16    21   ar
     3    16    17   ar
     4    17    18   ar
     5    18    19   ar
     6    18    22    1
     7    19    20   ar
     8    20    21   ar
     9    21    13    1
    10    13    12    1
    11    12     1    1
    12     1     5   ar
    13     1     2   ar
    14     2     3   ar
    15     3     4   ar
    16     4     5   ar
    17     4    23    1
    18     5     6    1
    19     6    11   ar
    20     6     7   ar
    21     7     8   ar
    22     8     9   ar
    23     9    10   ar
    24    10    11   ar
    25    23    24    1
    26    24    25    1
    27    24    26    1
    28    26    27    2
    29    26    28   am
    30    28    30    1
    31    30    31    2
    32    31    32    1
    33    32    37   ar
    34    32    33   ar
    35    33    34   ar
    36    34    35   ar
    37    35    36   ar
    38    35    38    1
    39    36    37   ar
    40    13    14    1
    41    28    29    1
#	Name:			ZINC02141190
#	Creating user name:	trannguyen
#	Creation time:		Thu Dec  1 16:45:04 2022


#	Modifying user name:	trannguyen
#	Modification time:	Thu Dec  1 16:45:04 2022

@<TRIPOS>MOLECULE
ZINC02141190
 15 14 0 0 0
SMALL
GASTEIGER

@<TRIPOS>ATOM
      1 C           2.6419   63.7165   69.7824 C.3     1  UNL1        0.1814
      2 C           3.6655   63.2482   67.6387 C.3     1  UNL1        0.1692
      3 C           5.0520   63.5773   69.5962 C.3     1  UNL1        0.1692
      4 N           3.7664   63.0435   69.0990 N.4     1  UNL1        0.2979
      5 H           3.7239   62.0438   69.2971 H       1  UNL1        0.2089
      6 C           1.6640   62.6532   70.2865 C.3     1  UNL1        0.2613
      7 CL          2.0798   61.0589   69.5542 Cl      1  UNL1       -0.0751
      8 CL          1.7755   62.5371   72.0822 Cl      1  UNL1       -0.0751
      9 CL         -0.0157   63.1105   69.8169 Cl      1  UNL1       -0.0751
     10 N           1.9483   64.6203   68.8613 N.am    1  UNL1       -0.2270
     11 C           2.3724   65.8916   68.7177 C.2     1  UNL1        0.4057
     12 O           3.3299   66.2880   69.3521 O.2     1  UNL1       -0.2263
     13 H           1.1725   64.2992   68.3473 H       1  UNL1        0.1580
     14 O           1.7384   66.7207   67.8672 O.3     1  UNL1       -0.4305
     15 C           2.4601   67.9066   67.4416 C.3     1  UNL1        0.2573
@<TRIPOS>UNITY_ATOM_ATTR
4 1
charge 1
@<TRIPOS>BOND
     1     2     4    1
     2     3     4    1
     3     1     6    1
     4     1    10    1
     5     1     4    1
     6     6     7    1
     7     6     8    1
     8     6     9    1
     9    10    11   am
    10    11    12    2
    11    11    14    1
    12    14    15    1
    13    10    13    1
    14     4     5    1
#	Name:			ZINC02432806
#	Creating user name:	trannguyen
#	Creation time:		Thu Dec  1 16:45:04 2022


#	Modifying user name:	trannguyen
#	Modification time:	Thu Dec  1 16:45:04 2022

@<TRIPOS>MOLECULE
ZINC02432806
 28 31 0 0 0
SMALL
GASTEIGER

@<TRIPOS>ATOM
      1 C          -3.9474   59.7818   75.7596 C.ar    1  UNL1        0.0016
      2 C          -2.9413   59.6384   76.7049 C.ar    1  UNL1        0.0016
      3 C          -1.6168   59.7541   76.3393 C.ar    1  UNL1        0.0188
      4 C          -1.2886   60.0159   75.0162 C.ar    1  UNL1        0.0789
      5 C          -2.3078   60.1612   74.0583 C.ar    1  UNL1        0.0987
      6 C          -3.6443   60.0396   74.4530 C.ar    1  UNL1        0.0206
      7 N          -1.7069   60.4069   72.8689 N.ar    1  UNL1       -0.2268
      8 C          -0.4064   60.4282   73.0286 C.ar    1  UNL1        0.1439
      9 N          -0.0967   60.1853   74.3395 N.ar    1  UNL1       -0.3087
     10 C           0.5789   60.6743   71.9531 C.ar    1  UNL1        0.0350
     11 C           1.2335   59.6029   71.3441 C.ar    1  UNL1        0.0030
     12 C           2.1476   59.8381   70.3379 C.ar    1  UNL1        0.0010
     13 C           2.4245   61.1337   69.9395 C.ar    1  UNL1        0.0114
     14 C           1.7827   62.2017   70.5428 C.ar    1  UNL1        0.0578
     15 C           0.8617   61.9788   71.5476 C.ar    1  UNL1        0.0144
     16 CL          2.1366   63.8239   70.0361 Cl      1  UNL1       -0.0822
     17 C           1.2479   60.1230   74.9179 C.3     1  UNL1        0.1427
     18 C           1.5533   58.6858   75.3447 C.3     1  UNL1        0.1885
     19 O           2.0681   57.9567   74.2287 O.3     1  UNL1       -0.3773
     20 H           2.8818   58.3802   73.9133 H       1  UNL1        0.2107
     21 C           2.5911   58.6973   76.4688 C.3     1  UNL1        0.1371
     22 C           3.3240   60.2514   78.1762 C.3     1  UNL1        0.1381
     23 C           2.8346   61.2489   79.2296 C.3     1  UNL1        0.2029
     24 O           1.9925   60.5709   80.1658 O.3     1  UNL1       -0.3412
     25 C           0.8523   59.9476   79.5683 C.3     1  UNL1        0.2029
     26 C           1.3215   58.9371   78.5184 C.3     1  UNL1        0.1381
     27 N           2.1497   59.6426   77.5172 N.4     1  UNL1        0.2816
     28 H           1.5924   60.3791   77.0842 H       1  UNL1        0.2070
@<TRIPOS>UNITY_ATOM_ATTR
27 1
charge 1
@<TRIPOS>BOND
     1     1     6   ar
     2     1     2   ar
     3     2     3   ar
     4     3     4   ar
     5     4     9   ar
     6     4     5   ar
     7     5     6   ar
     8     5     7   ar
     9     7     8   ar
    10     8     9   ar
    11     8    10    1
    12     9    17    1
    13    17    18    1
    14    18    21    1
    15    18    19    1
    16    21    27    1
    17    22    23    1
    18    22    27    1
    19    23    24    1
    20    24    25    1
    21    25    26    1
    22    26    27    1
    23    10    15   ar
    24    10    11   ar
    25    11    12   ar
    26    12    13   ar
    27    13    14   ar
    28    14    15   ar
    29    14    16    1
    30    19    20    1
    31    27    28    1
#	Name:			ZINC02496886
#	Creating user name:	trannguyen
#	Creation time:		Thu Dec  1 16:45:04 2022


#	Modifying user name:	trannguyen
#	Modification time:	Thu Dec  1 16:45:04 2022

@<TRIPOS>MOLECULE
ZINC02496886
 25 27 0 0 0
SMALL
GASTEIGER

@<TRIPOS>ATOM
      1 C          -0.4562   59.7771   75.1529 C.ar    1  UNL1        0.1776
      2 N          -1.6015   59.5441   74.5612 N.ar    1  UNL1       -0.2260
      3 C          -2.7096   59.1815   75.2425 C.ar    1  UNL1        0.0722
      4 C          -2.5909   59.0752   76.6135 C.ar    1  UNL1        0.0955
      5 C          -1.3682   59.3140   77.2560 C.ar    1  UNL1        0.2729
      6 O          -1.2687   59.2046   78.4675 O.2     1  UNL1       -0.2660
      7 N          -0.3012   59.6677   76.5041 N.ar    1  UNL1       -0.2538
      8 S          -4.1936   58.6211   77.2333 S.3     1  UNL1       -0.1075
      9 C          -5.1829   58.9594   75.7179 C.3     1  UNL1        0.0687
     10 C          -4.0626   58.8614   74.6571 C.3     1  UNL1        0.0585
     11 C           0.9430   59.9119   77.1016 C.ar    1  UNL1        0.0688
     12 C           1.8921   58.9009   77.1689 C.ar    1  UNL1        0.0200
     13 C           3.1195   59.1450   77.7532 C.ar    1  UNL1        0.0311
     14 C           3.3994   60.3939   78.2821 C.ar    1  UNL1        0.1402
     15 C           2.4520   61.4021   78.2205 C.ar    1  UNL1        0.0311
     16 C           1.2257   61.1635   77.6319 C.ar    1  UNL1        0.0200
     17 F           4.5986   60.6292   78.8582 F       1  UNL1       -0.2042
     18 S           0.9295   60.2477   74.1717 S.3     1  UNL1       -0.0665
     19 C           0.2977   59.8481   72.5234 C.3     1  UNL1        0.1533
     20 C          -1.2773   61.7174   72.0060 C.3     1  UNL1        0.0015
     21 C           0.1102   61.1381   71.7223 C.3     1  UNL1        0.0225
     22 C           1.2799   58.9536   71.8121 C.2     1  UNL1        0.3272
     23 O           1.0976   57.7595   71.7821 O.2     1  UNL1       -0.2492
     24 O           2.3574   59.4831   71.2117 O.3     1  UNL1       -0.4438
     25 C           2.6696   59.0052   69.8767 C.3     1  UNL1        0.2556
@<TRIPOS>BOND
     1    20    21    1
     2    21    19    1
     3    19    22    1
     4    19    18    1
     5    22    23    2
     6    22    24    1
     7    24    25    1
     8    18     1    1
     9     1     7   ar
    10     1     2   ar
    11     2     3   ar
    12     3    10    1
    13     3     4   ar
    14     4     5   ar
    15     4     8    1
    16     5     6    2
    17     5     7   ar
    18     7    11    1
    19    11    16   ar
    20    11    12   ar
    21    12    13   ar
    22    13    14   ar
    23    14    15   ar
    24    14    17    1
    25    15    16   ar
    26     8     9    1
    27     9    10    1
#	Name:			ZINC02856677
#	Creating user name:	trannguyen
#	Creation time:		Thu Dec  1 16:45:04 2022


#	Modifying user name:	trannguyen
#	Modification time:	Thu Dec  1 16:45:04 2022

@<TRIPOS>MOLECULE
ZINC02856677
 32 34 0 0 0
SMALL
GASTEIGER

@<TRIPOS>ATOM
      1 C           0.5755   62.3572   71.3693 C.2     1  UNL1        0.2521
      2 O          -0.4583   62.6878   70.8281 O.2     1  UNL1       -0.2723
      3 N           1.6855   63.1060   71.2166 N.am    1  UNL1       -0.2337
      4 H           2.5247   62.8375   71.6559 H       1  UNL1        0.1728
      5 N           1.6453   64.2664   70.4326 N.am    1  UNL1       -0.2458
      6 H           0.9201   64.9204   70.5580 H       1  UNL1        0.1718
      7 C           2.5995   64.4875   69.5067 C.2     1  UNL1        0.1476
      8 S           4.0037   63.5087   69.4741 S.2     1  UNL1       -0.0174
      9 N           2.4481   65.4791   68.6066 N.am    1  UNL1       -0.3113
     10 H           1.9179   65.3270   67.7911 H       1  UNL1        0.1488
     11 C           3.0727   66.7834   68.8417 C.3     1  UNL1        0.1156
     12 C           3.6931   67.2813   67.5617 C.ar    1  UNL1       -0.0025
     13 C           4.7405   66.5868   66.9858 C.ar    1  UNL1       -0.0018
     14 C           5.3062   67.0398   65.8089 C.ar    1  UNL1        0.0111
     15 C           4.8315   68.1948   65.2132 C.ar    1  UNL1        0.0577
     16 C           3.7869   68.8925   65.7931 C.ar    1  UNL1        0.0111
     17 C           3.2183   68.4354   66.9669 C.ar    1  UNL1       -0.0018
     18 CL          5.5457   68.7679   63.7385 Cl      1  UNL1       -0.0822
     19 C           0.6186   61.1089   72.2127 C.3     1  UNL1        0.1516
     20 C           2.6384   58.0134   70.0712 C.ar    1  UNL1       -0.0000
     21 C           1.9182   57.7088   71.2111 C.ar    1  UNL1       -0.0003
     22 C           1.2643   58.7104   71.9039 C.ar    1  UNL1       -0.0030
     23 C           1.3315   60.0169   71.4574 C.ar    1  UNL1       -0.0035
     24 C           2.0478   60.3209   70.3148 C.ar    1  UNL1       -0.0030
     25 C           2.7052   59.3199   69.6245 C.ar    1  UNL1       -0.0003
     26 S          -1.0735   60.5766   72.5919 S.3     1  UNL1       -0.1007
     27 C          -1.0372   60.2412   74.3213 C.ar    1  UNL1        0.0260
     28 C           0.1753   60.2105   74.9997 C.ar    1  UNL1        0.0062
     29 C           0.1994   59.9520   76.3559 C.ar    1  UNL1        0.0005
     30 C          -0.9803   59.7135   77.0371 C.ar    1  UNL1        0.0000
     31 C          -2.1884   59.7379   76.3644 C.ar    1  UNL1        0.0005
     32 C          -2.2207   60.0009   75.0092 C.ar    1  UNL1        0.0062
@<TRIPOS>BOND
     1    20    25   ar
     2    20    21   ar
     3    21    22   ar
     4    22    23   ar
     5    23    24   ar
     6    23    19    1
     7    24    25   ar
     8    19     1    1
     9    19    26    1
    10     1     2    2
    11     1     3   am
    12     3     5    1
    13     5     7    1
    14     7     8    2
    15     7     9    1
    16     9    11    1
    17    11    12    1
    18    12    17   ar
    19    12    13   ar
    20    13    14   ar
    21    14    15   ar
    22    15    16   ar
    23    15    18    1
    24    16    17   ar
    25    26    27    1
    26    27    32   ar
    27    27    28   ar
    28    28    29   ar
    29    29    30   ar
    30    30    31   ar
    31    31    32   ar
    32     3     4    1
    33     5     6    1
    34     9    10    1
#	Name:			ZINC02974791
#	Creating user name:	trannguyen
#	Creation time:		Thu Dec  1 16:45:04 2022


#	Modifying user name:	trannguyen
#	Modification time:	Thu Dec  1 16:45:04 2022

@<TRIPOS>MOLECULE
ZINC02974791
 37 40 0 0 0
SMALL
GASTEIGER

@<TRIPOS>ATOM
      1 C          -1.2387   59.3657   75.8040 C.ar    1  UNL1        0.1331
      2 C          -1.4281   60.0544   74.5983 C.ar    1  UNL1        0.0673
      3 C          -2.5752   60.6805   73.9282 C.ar    1  UNL1        0.0232
      4 C          -2.1087   61.1939   72.7628 C.ar    1  UNL1        0.0815
      5 N          -0.7679   60.9395   72.6524 N.ar    1  UNL1       -0.2902
      6 C          -0.3241   60.2492   73.7505 C.ar    1  UNL1        0.1521
      7 N           0.8604   59.7701   74.1283 N.ar    1  UNL1       -0.2061
      8 C           0.9931   59.1292   75.2692 C.ar    1  UNL1        0.2014
      9 N          -0.0168   58.9292   76.0968 N.ar    1  UNL1       -0.2091
     10 C           0.0361   61.3296   71.5716 C.ar    1  UNL1        0.0656
     11 C           1.1065   60.5363   71.1804 C.ar    1  UNL1        0.0207
     12 C           1.8951   60.9188   70.1135 C.ar    1  UNL1        0.0384
     13 C           1.6241   62.1002   69.4384 C.ar    1  UNL1        0.1386
     14 C           0.5580   62.8958   69.8322 C.ar    1  UNL1        0.0384
     15 C          -0.2343   62.5119   70.8959 C.ar    1  UNL1        0.0207
     16 O           2.4039   62.4786   68.3910 O.3     1  UNL1       -0.4755
     17 C           3.8124   62.5470   68.6222 C.3     1  UNL1        0.2055
     18 C           4.1443   63.8401   69.3697 C.3     1  UNL1        0.0512
     19 C          -3.9695   60.7397   74.4276 C.ar    1  UNL1        0.0016
     20 C          -4.4369   61.8890   75.0636 C.ar    1  UNL1        0.0001
     21 C          -5.7379   61.9404   75.5209 C.ar    1  UNL1        0.0000
     22 C          -6.5741   60.8502   75.3602 C.ar    1  UNL1        0.0000
     23 C          -6.1142   59.7051   74.7349 C.ar    1  UNL1        0.0000
     24 C          -4.8171   59.6441   74.2680 C.ar    1  UNL1        0.0001
     25 N          -2.2952   59.1501   76.6709 N.pl3   1  UNL1       -0.3196
     26 H          -2.8805   59.8983   76.9293 H       1  UNL1        0.1481
     27 C          -2.5429   57.8083   77.2043 C.3     1  UNL1        0.0706
     28 C          -2.5287   57.8568   78.7335 C.3     1  UNL1        0.0212
     29 C          -3.9075   57.3119   76.7226 C.3     1  UNL1        0.0256
     30 C          -3.7129   56.3203   75.5737 C.3     1  UNL1        0.0626
     31 C          -2.9452   55.0975   76.0801 C.3     1  UNL1        0.1053
     32 N          -3.7237   53.8815   75.7644 N.4     1  UNL1        0.2758
     33 H          -4.4523   54.1200   75.0916 H       1  UNL1        0.2067
     34 C          -1.5364   53.4889   74.6814 C.3     1  UNL1        0.0670
     35 C          -2.8401   52.8556   75.1715 C.3     1  UNL1        0.1055
     36 C          -4.3571   53.3545   76.9915 C.3     1  UNL1        0.1055
     37 C          -3.5368   53.8068   78.2013 C.3     1  UNL1        0.0670
@<TRIPOS>UNITY_ATOM_ATTR
32 1
charge 1
@<TRIPOS>BOND
     1    34    35    1
     2    35    32    1
     3    36    37    1
     4    36    32    1
     5    31    30    1
     6    31    32    1
     7    30    29    1
     8    29    27    1
     9    27    28    1
    10    27    25    1
    11    25     1    1
    12     1     9   ar
    13     1     2   ar
    14     2     6   ar
    15     2     3   ar
    16     3     4   ar
    17     3    19    1
    18     4     5   ar
    19     5     6   ar
    20     5    10    1
    21     6     7   ar
    22     7     8   ar
    23     8     9   ar
    24    10    15   ar
    25    10    11   ar
    26    11    12   ar
    27    12    13   ar
    28    13    14   ar
    29    13    16    1
    30    14    15   ar
    31    16    17    1
    32    17    18    1
    33    19    24   ar
    34    19    20   ar
    35    20    21   ar
    36    21    22   ar
    37    22    23   ar
    38    23    24   ar
    39    25    26    1
    40    32    33    1
#	Name:			ZINC03111475
#	Creating user name:	trannguyen
#	Creation time:		Thu Dec  1 16:45:04 2022


#	Modifying user name:	trannguyen
#	Modification time:	Thu Dec  1 16:45:04 2022

@<TRIPOS>MOLECULE
ZINC03111475
 15 16 0 0 0
SMALL
GASTEIGER

@<TRIPOS>ATOM
      1 C          -0.4392   61.7987   71.5612 C.3     1  UNL1        0.0525
      2 C           0.7122   62.2391   70.6944 C.ar    1  UNL1        0.0714
      3 C           1.5452   61.3057   70.0854 C.ar    1  UNL1        0.0822
      4 C           2.5791   61.7282   69.3071 C.ar    1  UNL1        0.2385
      5 N           2.8047   63.0495   69.1198 N.ar    1  UNL1       -0.0206
      6 C           1.9637   63.8998   69.7359 C.ar    1  UNL1        0.3788
      7 N           0.9575   63.5227   70.4928 N.ar    1  UNL1       -0.1811
      8 S           2.5883   65.4932   69.2476 S.2     1  UNL1        0.0340
      9 C           3.9452   64.9117   68.2427 C.ar    1  UNL1        0.2551
     10 N           3.8206   63.6164   68.3536 N.ar    1  UNL1        0.0228
     11 C           3.4800   60.7158   68.6479 C.3     1  UNL1        0.1110
     12 C           4.9653   65.7067   67.4691 C.3     1  UNL1        0.4467
     13 F           4.8930   65.3652   66.1144 F       1  UNL1       -0.1638
     14 F           4.7042   67.0728   67.6203 F       1  UNL1       -0.1638
     15 F           6.2456   65.4201   67.9547 F       1  UNL1       -0.1638
@<TRIPOS>UNITY_ATOM_ATTR
5 1
charge 1
@<TRIPOS>BOND
     1     1     2    1
     2     2     7   ar
     3     2     3   ar
     4     3     4   ar
     5     4     5   ar
     6     4    11    1
     7     5    10   ar
     8     5     6   ar
     9     6     7   ar
    10     6     8   ar
    11     8     9   ar
    12     9    10   ar
    13     9    12    1
    14    12    13    1
    15    12    14    1
    16    12    15    1
#	Name:			ZINC03120079
#	Creating user name:	trannguyen
#	Creation time:		Thu Dec  1 16:45:04 2022


#	Modifying user name:	trannguyen
#	Modification time:	Thu Dec  1 16:45:04 2022

@<TRIPOS>MOLECULE
ZINC03120079
 37 39 0 0 0
SMALL
GASTEIGER

@<TRIPOS>ATOM
      1 N           0.2737   60.3378   71.6557 N.am    1  UNL1       -0.2827
      2 C           0.3826   60.6069   72.9717 C.2     1  UNL1        0.2375
      3 O           1.3939   61.1177   73.4047 O.2     1  UNL1       -0.2738
      4 H          -0.5704   59.9831   71.2939 H       1  UNL1        0.1549
      5 C           2.7077   61.9926   69.4793 C.ar    1  UNL1        0.0309
      6 C           1.6229   61.8188   70.3189 C.ar    1  UNL1        0.0218
      7 C           1.3580   60.5619   70.8053 C.ar    1  UNL1        0.0613
      8 C           2.1988   59.5152   70.4284 C.ar    1  UNL1        0.0960
      9 S           3.3755   60.3410   69.3701 S.2     1  UNL1       -0.0812
     10 C           3.3446   64.3982   69.5876 C.ar    1  UNL1        0.0014
     11 C           3.8024   65.5501   68.9827 C.ar    1  UNL1        0.0114
     12 C           4.0994   65.5542   67.6301 C.ar    1  UNL1        0.0577
     13 C           3.9445   64.4018   66.8779 C.ar    1  UNL1        0.0114
     14 C           3.4930   63.2422   67.4727 C.ar    1  UNL1        0.0014
     15 C           3.1920   63.2319   68.8358 C.ar    1  UNL1        0.0061
     16 CL          4.6688   67.0097   66.8745 Cl      1  UNL1       -0.0822
     17 C           2.1357   58.1478   70.7924 C.2     1  UNL1        0.2500
     18 O           1.2050   57.7385   71.4628 O.2     1  UNL1       -0.2698
     19 N           3.1056   57.2998   70.3969 N.am    1  UNL1       -0.3249
     20 H           3.8579   57.6308   69.8549 H       1  UNL1        0.1453
     21 H           3.0617   56.3494   70.6498 H       1  UNL1        0.1453
     22 C          -0.7523   60.2733   73.9054 C.3     1  UNL1        0.1472
     23 S          -2.2763   61.0555   73.3084 S.3     1  UNL1       -0.1039
     24 C          -3.5528   60.2523   74.2195 C.ar    1  UNL1        0.0256
     25 C          -4.7529   60.9090   74.4641 C.ar    1  UNL1        0.0100
     26 C          -5.7534   60.2738   75.1728 C.ar    1  UNL1        0.0719
     27 C          -5.5576   58.9906   75.6500 C.ar    1  UNL1        0.0077
     28 C          -4.3623   58.3363   75.4137 C.ar    1  UNL1        0.0719
     29 C          -3.3597   58.9626   74.7001 C.ar    1  UNL1        0.0100
     30 C          -4.1539   56.9379   75.9352 C.3     1  UNL1        0.4186
     31 F          -3.1420   56.9464   76.9012 F       1  UNL1       -0.1659
     32 F          -5.3420   56.4720   76.5085 F       1  UNL1       -0.1659
     33 F          -3.7842   56.0969   74.8801 F       1  UNL1       -0.1659
     34 C          -7.0579   60.9824   75.4325 C.3     1  UNL1        0.4186
     35 F          -7.4088   60.8348   76.7787 F       1  UNL1       -0.1659
     36 F          -6.9177   62.3418   75.1335 F       1  UNL1       -0.1659
     37 F          -8.0581   60.4283   74.6264 F       1  UNL1       -0.1659
@<TRIPOS>BOND
     1    10    15   ar
     2    10    11   ar
     3    11    12   ar
     4    12    13   ar
     5    12    16    1
     6    13    14   ar
     7    14    15   ar
     8    15     5    1
     9     5     9   ar
    10     5     6   ar
    11     6     7   ar
    12     7     8   ar
    13     7     1    1
    14     8     9   ar
    15     8    17    1
    16    17    18    2
    17    17    19   am
    18     1     2   am
    19     2     3    2
    20     2    22    1
    21    22    23    1
    22    23    24    1
    23    24    29   ar
    24    24    25   ar
    25    25    26   ar
    26    26    27   ar
    27    26    34    1
    28    27    28   ar
    29    28    29   ar
    30    28    30    1
    31    30    31    1
    32    30    32    1
    33    30    33    1
    34    34    35    1
    35    34    36    1
    36    34    37    1
    37    19    20    1
    38    19    21    1
    39     1     4    1
#	Name:			ZINC03176669
#	Creating user name:	trannguyen
#	Creation time:		Thu Dec  1 16:45:04 2022


#	Modifying user name:	trannguyen
#	Modification time:	Thu Dec  1 16:45:04 2022

@<TRIPOS>MOLECULE
ZINC03176669
 15 16 0 0 0
SMALL
GASTEIGER

@<TRIPOS>ATOM
      1 C           3.5906   61.6326   68.3053 C.3     1  UNL1        0.0322
      2 C           2.6514   61.1257   69.3693 C.ar    1  UNL1       -0.0003
      3 C           2.7208   59.8236   69.8345 C.ar    1  UNL1        0.0611
      4 C           1.8475   59.3901   70.8011 C.ar    1  UNL1        0.2034
      5 N           0.8985   60.1742   71.3413 N.ar    1  UNL1       -0.1718
      6 C           0.8144   61.4239   70.9108 C.ar    1  UNL1        0.2623
      7 C           1.6669   61.9478   69.9270 C.ar    1  UNL1        0.1344
      8 S          -0.5169   62.2027   71.7988 S.3     1  UNL1       -0.0383
      9 C          -1.0350   60.7875   72.8397 C.3     1  UNL1        0.1464
     10 C          -0.0373   59.7164   72.3725 C.3     1  UNL1        0.2741
     11 C           1.9575   57.9652   71.2792 C.3     1  UNL1        0.1078
     12 C           1.5300   63.3074   69.4988 C.1     1  UNL1        0.1067
     13 N           1.4213   64.3860   69.1591 N.1     1  UNL1       -0.1906
     14 C           0.7679   59.2404   73.5832 C.3     1  UNL1        0.1461
     15 BR         -0.0670   59.9133   75.2311 Br      1  UNL1       -0.0733
@<TRIPOS>UNITY_ATOM_ATTR
5 1
charge 1
@<TRIPOS>BOND
     1     1     2    1
     2     2     7   ar
     3     2     3   ar
     4     3     4   ar
     5     4     5   ar
     6     4    11    1
     7     5    10    1
     8     5     6   ar
     9     6     7   ar
    10     6     8    1
    11     7    12    1
    12    12    13    3
    13     8     9    1
    14     9    10    1
    15    10    14    1
    16    14    15    1
#	Name:			ZINC03190870
#	Creating user name:	trannguyen
#	Creation time:		Thu Dec  1 16:45:04 2022


#	Modifying user name:	trannguyen
#	Modification time:	Thu Dec  1 16:45:04 2022

@<TRIPOS>MOLECULE
ZINC03190870
 13 14 0 0 0
SMALL
GASTEIGER

@<TRIPOS>ATOM
      1 C           4.5011   65.1844   68.8249 C.ar    1  UNL1        0.1614
      2 N           5.0289   65.6871   67.7412 N.ar    1  UNL1        0.0142
      3 N           4.4530   66.7775   67.0937 N.ar    1  UNL1       -0.0212
      4 C           4.9112   67.3826   65.9732 C.ar    1  UNL1        0.2347
      5 C           4.2460   68.4422   65.4368 C.ar    1  UNL1        0.0593
      6 C           3.0843   68.9084   66.0446 C.ar    1  UNL1        0.1068
      7 N           2.6612   68.2968   67.1380 N.ar    1  UNL1       -0.1755
      8 C           3.3253   67.2761   67.6323 C.ar    1  UNL1        0.3789
      9 S           3.0701   66.2291   69.0486 S.2     1  UNL1        0.0258
     10 C           4.7660   69.1083   64.1891 C.3     1  UNL1        0.0386
     11 C           6.1695   66.8794   65.3139 C.3     1  UNL1        0.1106
     12 C           3.8226   63.0329   69.8545 C.3     1  UNL1        0.0075
     13 C           4.9724   64.0240   69.6630 C.3     1  UNL1        0.0589
@<TRIPOS>UNITY_ATOM_ATTR
3 1
charge 1
@<TRIPOS>BOND
     1    12    13    1
     2    13     1    1
     3     1     9   ar
     4     1     2   ar
     5     2     3   ar
     6     3     8   ar
     7     3     4   ar
     8     4     5   ar
     9     4    11    1
    10     5     6   ar
    11     5    10    1
    12     6     7   ar
    13     7     8   ar
    14     8     9   ar
#	Name:			ZINC03242101
#	Creating user name:	trannguyen
#	Creation time:		Thu Dec  1 16:45:04 2022


#	Modifying user name:	trannguyen
#	Modification time:	Thu Dec  1 16:45:04 2022

@<TRIPOS>MOLECULE
ZINC03242101
 37 40 0 0 0
SMALL
GASTEIGER

@<TRIPOS>ATOM
      1 C           0.6501   59.9090   72.8750 C.3     1  UNL1        0.2099
      2 O           1.1434   58.8823   73.7379 O.3     1  UNL1       -0.3760
      3 H           0.8228   58.0200   73.4305 H       1  UNL1        0.2107
      4 C          -0.8798   59.8980   72.8919 C.3     1  UNL1        0.2405
      5 O          -1.3395   59.6324   74.2187 O.3     1  UNL1       -0.4729
      6 C          -5.3451   60.2826   74.9803 C.ar    1  UNL1       -0.0001
      7 C          -4.6846   61.0445   74.0178 C.ar    1  UNL1        0.0031
      8 C          -3.3456   60.8287   73.7694 C.ar    1  UNL1        0.0366
      9 C          -2.6577   59.8461   74.4690 C.ar    1  UNL1        0.1346
     10 C          -3.3129   59.0856   75.4278 C.ar    1  UNL1        0.0121
     11 C          -4.6508   59.3008   75.6847 C.ar    1  UNL1       -0.0013
     12 C          -2.5615   58.0241   76.1891 C.3     1  UNL1        0.0342
     13 C         -10.9310   61.1929   76.0459 C.3     1  UNL1        0.0310
     14 C          -9.4694   60.9545   75.7668 C.ar    1  UNL1       -0.0218
     15 C          -8.8804   59.7627   76.1486 C.ar    1  UNL1       -0.0043
     16 C          -7.5421   59.5392   75.8959 C.ar    1  UNL1       -0.0003
     17 C          -6.7841   60.5170   75.2547 C.ar    1  UNL1       -0.0000
     18 C          -7.3813   61.7182   74.8774 C.ar    1  UNL1       -0.0003
     19 C          -8.7218   61.9286   75.1300 C.ar    1  UNL1       -0.0043
     20 C           1.1462   59.6590   71.4494 C.3     1  UNL1        0.1389
     21 C           2.2069   60.7554   69.5685 C.3     1  UNL1        0.1273
     22 C           3.1509   61.8940   69.1748 C.3     1  UNL1        0.1526
     23 N           2.5674   63.1768   69.5914 N.pl3   1  UNL1       -0.2973
     24 C           2.3486   63.2055   71.0444 C.3     1  UNL1        0.1526
     25 C           1.4047   62.0669   71.4381 C.3     1  UNL1        0.1273
     26 N           2.0132   60.7821   71.0337 N.4     1  UNL1        0.2804
     27 H           2.9203   60.6864   71.4904 H       1  UNL1        0.2069
     28 C           3.3680   64.2465   69.1846 C.ar    1  UNL1        0.0481
     29 C           4.7523   64.1327   69.2191 C.ar    1  UNL1        0.0145
     30 C           5.5408   65.1924   68.8166 C.ar    1  UNL1        0.0012
     31 C           4.9541   66.3661   68.3794 C.ar    1  UNL1        0.0039
     32 C           3.5769   66.4847   68.3491 C.ar    1  UNL1        0.0726
     33 C           2.7821   65.4266   68.7450 C.ar    1  UNL1        0.0184
     34 C           2.9422   67.7678   67.8783 C.3     1  UNL1        0.4186
     35 F           3.6174   68.2338   66.7451 F       1  UNL1       -0.1659
     36 F           1.6003   67.5345   67.5585 F       1  UNL1       -0.1659
     37 F           3.0195   68.7265   68.8943 F       1  UNL1       -0.1659
@<TRIPOS>UNITY_ATOM_ATTR
26 1
charge 1
@<TRIPOS>BOND
     1    13    14    1
     2    14    19   ar
     3    14    15   ar
     4    15    16   ar
     5    16    17   ar
     6    17    18   ar
     7    17     6    1
     8    18    19   ar
     9     6    11   ar
    10     6     7   ar
    11     7     8   ar
    12     8     9   ar
    13     9    10   ar
    14     9     5    1
    15    10    11   ar
    16    10    12    1
    17     5     4    1
    18     4     1    1
    19     1    20    1
    20     1     2    1
    21    20    26    1
    22    21    22    1
    23    21    26    1
    24    22    23    1
    25    23    24    1
    26    23    28    1
    27    24    25    1
    28    25    26    1
    29    28    33   ar
    30    28    29   ar
    31    29    30   ar
    32    30    31   ar
    33    31    32   ar
    34    32    33   ar
    35    32    34    1
    36    34    35    1
    37    34    36    1
    38    34    37    1
    39     2     3    1
    40    26    27    1
#	Name:			ZINC03327993
#	Creating user name:	trannguyen
#	Creation time:		Thu Dec  1 16:45:04 2022


#	Modifying user name:	trannguyen
#	Modification time:	Thu Dec  1 16:45:04 2022

@<TRIPOS>MOLECULE
ZINC03327993
 37 40 0 0 0
SMALL
GASTEIGER

@<TRIPOS>ATOM
      1 C          -1.5875   60.9445   73.9877 C.3     1  UNL1        0.1527
      2 C          -2.9693   60.4387   74.3129 C.ar    1  UNL1        0.0356
      3 C          -3.1700   59.0963   74.5746 C.ar    1  UNL1        0.0017
      4 C          -4.4368   58.6329   74.8771 C.ar    1  UNL1       -0.0001
      5 C          -5.5043   59.5105   74.9089 C.ar    1  UNL1       -0.0000
      6 C          -5.3046   60.8521   74.6421 C.ar    1  UNL1       -0.0001
      7 C          -4.0371   61.3161   74.3438 C.ar    1  UNL1        0.0017
      8 C          -0.5953   60.3525   74.9553 C.2     1  UNL1        0.2801
      9 O           0.1043   59.4227   74.6134 O.2     1  UNL1       -0.2682
     10 N          -0.4854   60.8565   76.2004 N.am    1  UNL1       -0.2790
     11 H          -0.9960   61.6593   76.4535 H       1  UNL1        0.1551
     12 C           0.3546   60.2387   77.1335 C.ar    1  UNL1        0.0522
     13 C           1.6106   60.7689   77.3971 C.ar    1  UNL1        0.0261
     14 C           2.4362   60.1596   78.3233 C.ar    1  UNL1        0.0597
     15 C           2.0166   59.0159   78.9795 C.ar    1  UNL1        0.0229
     16 C           0.7677   58.4822   78.7145 C.ar    1  UNL1        0.0597
     17 C          -0.0642   59.0908   77.7934 C.ar    1  UNL1        0.0261
     18 CL          0.2449   57.0471   79.5397 Cl      1  UNL1       -0.0822
     19 CL          4.0038   60.8261   78.6586 Cl      1  UNL1       -0.0822
     20 N          -1.2256   60.5413   72.6157 N.4     1  UNL1        0.2599
     21 H          -0.5049   59.8206   72.6560 H       1  UNL1        0.2041
     22 H          -2.0558   60.1796   72.1464 H       1  UNL1        0.2041
     23 C          -0.7135   61.6998   71.8597 C.3     1  UNL1        0.1036
     24 C           0.8126   61.6181   71.7900 C.3     1  UNL1        0.0695
     25 C           1.2323   61.0723   70.4236 C.3     1  UNL1        0.0504
     26 C           4.0786   63.7164   68.6473 C.ar    1  UNL1       -0.0000
     27 C           4.0010   63.6075   70.0232 C.ar    1  UNL1       -0.0003
     28 C           3.0798   62.7521   70.5980 C.ar    1  UNL1       -0.0040
     29 C           2.2363   62.0053   69.7969 C.ar    1  UNL1       -0.0182
     30 C           2.3177   62.1099   68.4210 C.ar    1  UNL1       -0.0040
     31 C           3.2354   62.9692   67.8462 C.ar    1  UNL1       -0.0003
     32 C           1.8521   59.7095   70.5958 C.ar    1  UNL1       -0.0182
     33 C           2.8271   59.2775   69.7163 C.ar    1  UNL1       -0.0040
     34 C           3.3991   58.0294   69.8772 C.ar    1  UNL1       -0.0003
     35 C           2.9889   57.2092   70.9116 C.ar    1  UNL1       -0.0000
     36 C           2.0098   57.6390   71.7878 C.ar    1  UNL1       -0.0003
     37 C           1.4416   58.8893   71.6301 C.ar    1  UNL1       -0.0040
@<TRIPOS>UNITY_ATOM_ATTR
20 1
charge 1
@<TRIPOS>BOND
     1    26    31   ar
     2    26    27   ar
     3    27    28   ar
     4    28    29   ar
     5    29    30   ar
     6    29    25    1
     7    30    31   ar
     8    25    24    1
     9    25    32    1
    10    24    23    1
    11    23    20    1
    12     1     2    1
    13     1     8    1
    14     1    20    1
    15     2     7   ar
    16     2     3   ar
    17     3     4   ar
    18     4     5   ar
    19     5     6   ar
    20     6     7   ar
    21     8     9    2
    22     8    10   am
    23    10    12    1
    24    12    17   ar
    25    12    13   ar
    26    13    14   ar
    27    14    15   ar
    28    14    19    1
    29    15    16   ar
    30    16    17   ar
    31    16    18    1
    32    32    37   ar
    33    32    33   ar
    34    33    34   ar
    35    34    35   ar
    36    35    36   ar
    37    36    37   ar
    38    10    11    1
    39    20    21    1
    40    20    22    1
#	Name:			ZINC03604790
#	Creating user name:	trannguyen
#	Creation time:		Thu Dec  1 16:45:04 2022


#	Modifying user name:	trannguyen
#	Modification time:	Thu Dec  1 16:45:04 2022

@<TRIPOS>MOLECULE
ZINC03604790
 18 19 0 0 0
SMALL
GASTEIGER

@<TRIPOS>ATOM
      1 S          -0.5614   61.6263   71.8758 S.3     1  UNL1        0.0109
      2 C          -1.6447   58.6004   76.8686 C.3     1  UNL1        0.1673
      3 C          -0.0797   59.7681   75.4361 C.3     1  UNL1        0.1242
      4 C           0.1987   60.1798   73.9884 C.3     1  UNL1        0.1451
      5 N          -0.8847   61.0516   73.5129 N.3     1  UNL1       -0.2065
      6 C          -2.1806   60.3622   73.5828 C.3     1  UNL1        0.1451
      7 C          -2.4589   59.9505   75.0304 C.3     1  UNL1        0.1242
      8 N          -1.3743   59.0569   75.4886 N.4     1  UNL1        0.2826
      9 H          -1.3317   58.2442   74.8737 H       1  UNL1        0.2070
     10 S           1.0648   60.5309   71.2776 S.3     1  UNL1        0.0109
     11 N           2.1099   61.7142   70.4884 N.3     1  UNL1       -0.2065
     12 C           1.4278   63.0083   70.3479 C.3     1  UNL1        0.1451
     13 C           2.3918   64.0259   69.7334 C.3     1  UNL1        0.1242
     14 C           3.5360   62.2389   68.5690 C.3     1  UNL1        0.1242
     15 C           2.5720   61.2213   69.1834 C.3     1  UNL1        0.1451
     16 C           3.7238   64.5179   67.7716 C.3     1  UNL1        0.1673
     17 N           2.8312   63.5289   68.4127 N.4     1  UNL1        0.2826
     18 H           2.0120   63.3902   67.8210 H       1  UNL1        0.2070
@<TRIPOS>UNITY_ATOM_ATTR
8 1
charge 1
17 1
charge 1
@<TRIPOS>BOND
     1     2     8    1
     2     3     4    1
     3     3     8    1
     4     4     5    1
     5     5     6    1
     6     5     1    1
     7     6     7    1
     8     7     8    1
     9     1    10    1
    10    10    11    1
    11    11    15    1
    12    11    12    1
    13    12    13    1
    14    13    17    1
    15    14    15    1
    16    14    17    1
    17    16    17    1
    18     8     9    1
    19    17    18    1
#	Name:			ZINC03635843
#	Creating user name:	trannguyen
#	Creation time:		Thu Dec  1 16:45:04 2022


#	Modifying user name:	trannguyen
#	Modification time:	Thu Dec  1 16:45:04 2022

@<TRIPOS>MOLECULE
ZINC03635843
 39 42 0 0 0
SMALL
GASTEIGER

@<TRIPOS>ATOM
      1 C          -0.4605   59.6317   75.7798 C.ar    1  UNL1        0.0891
      2 C          -1.7796   59.7949   76.0907 C.ar    1  UNL1        0.0480
      3 N          -2.4424   60.3045   75.0235 N.ar    1  UNL1       -0.3097
      4 C          -1.5740   60.4959   73.9639 C.ar    1  UNL1        0.0641
      5 C          -0.2991   60.0858   74.3856 C.ar    1  UNL1        0.0265
      6 C           0.7846   60.1665   73.5156 C.ar    1  UNL1        0.0386
      7 C           0.5982   60.6526   72.2347 C.ar    1  UNL1        0.1388
      8 C          -0.6644   61.0642   71.8197 C.ar    1  UNL1        0.0384
      9 C          -1.7437   60.9817   72.6722 C.ar    1  UNL1        0.0206
     10 C          -2.4049   59.4590   77.4201 C.3     1  UNL1        0.0506
     11 C          -3.8121   60.5952   74.9972 C.ar    1  UNL1        0.0637
     12 C          -4.7340   59.5829   74.7654 C.ar    1  UNL1        0.0172
     13 C          -6.0843   59.8719   74.7453 C.ar    1  UNL1       -0.0028
     14 C          -6.5181   61.1697   74.9450 C.ar    1  UNL1       -0.0218
     15 C          -5.6023   62.1810   75.1705 C.ar    1  UNL1       -0.0028
     16 C          -4.2509   61.8974   75.1974 C.ar    1  UNL1        0.0172
     17 C          -7.9921   61.4827   74.9162 C.3     1  UNL1        0.0310
     18 C           0.5901   59.1072   76.6591 C.2     1  UNL1        0.3424
     19 O           1.2069   59.8618   77.3866 O.2     1  UNL1       -0.2449
     20 O           0.8720   57.7886   76.6609 O.3     1  UNL1       -0.4454
     21 C          -0.7768   56.0437   77.0697 C.3     1  UNL1        0.0513
     22 C           0.2535   56.9836   77.6990 C.3     1  UNL1        0.2089
     23 O           1.6527   60.7340   71.3803 O.3     1  UNL1       -0.4726
     24 C           2.1034   59.5139   70.7882 C.3     1  UNL1        0.2405
     25 C           2.3809   59.7410   69.3008 C.3     1  UNL1        0.2098
     26 O           3.6680   59.2149   68.9706 O.3     1  UNL1       -0.3760
     27 H           4.3462   59.6647   69.4984 H       1  UNL1        0.2107
     28 C           2.3505   61.2408   68.9994 C.3     1  UNL1        0.1358
     29 N           3.5568   61.8723   69.5668 N.4     1  UNL1        0.2565
     30 H           4.2950   61.1734   69.6501 H       1  UNL1        0.2036
     31 H           3.3310   62.2532   70.4856 H       1  UNL1        0.2036
     32 C           4.0199   62.9676   68.6940 C.3     1  UNL1        0.1071
     33 C           4.2785   64.2122   69.5457 C.3     1  UNL1        0.0871
     34 C           4.1807   65.4422   68.6805 C.ar    1  UNL1       -0.0163
     35 C           4.9099   65.5228   67.5088 C.ar    1  UNL1       -0.0041
     36 C           4.8165   66.6490   66.7128 C.ar    1  UNL1       -0.0003
     37 C           4.0017   67.6988   67.0935 C.ar    1  UNL1       -0.0000
     38 C           3.2770   67.6206   68.2680 C.ar    1  UNL1       -0.0003
     39 C           3.3663   66.4921   69.0614 C.ar    1  UNL1       -0.0041
@<TRIPOS>UNITY_ATOM_ATTR
29 1
charge 1
@<TRIPOS>BOND
     1    21    22    1
     2    22    20    1
     3    20    18    1
     4    18    19    2
     5    18     1    1
     6     1     5   ar
     7     1     2   ar
     8     2     3   ar
     9     2    10    1
    10     3     4   ar
    11     3    11    1
    12     4     9   ar
    13     4     5   ar
    14     5     6   ar
    15     6     7   ar
    16     7     8   ar
    17     7    23    1
    18     8     9   ar
    19    23    24    1
    20    24    25    1
    21    25    28    1
    22    25    26    1
    23    28    29    1
    24    32    33    1
    25    32    29    1
    26    33    34    1
    27    34    39   ar
    28    34    35   ar
    29    35    36   ar
    30    36    37   ar
    31    37    38   ar
    32    38    39   ar
    33    11    16   ar
    34    11    12   ar
    35    12    13   ar
    36    13    14   ar
    37    14    15   ar
    38    14    17    1
    39    15    16   ar
    40    26    27    1
    41    29    30    1
    42    29    31    1
#	Name:			ZINC03654932
#	Creating user name:	trannguyen
#	Creation time:		Thu Dec  1 16:45:04 2022


#	Modifying user name:	trannguyen
#	Modification time:	Thu Dec  1 16:45:04 2022

@<TRIPOS>MOLECULE
ZINC03654932
 27 29 0 0 0
SMALL
GASTEIGER

@<TRIPOS>ATOM
      1 C          -1.2667   61.0395   72.4788 C.3     1  UNL1        0.0872
      2 C           0.0209   61.6776   72.0253 C.2     1  UNL1        0.2276
      3 O           1.0234   61.5649   72.6983 O.2     1  UNL1       -0.2747
      4 N           0.0585   62.3734   70.8717 N.am    1  UNL1       -0.2641
      5 H          -0.7553   62.4648   70.3252 H       1  UNL1        0.1567
      6 C           1.2423   62.9600   70.4547 C.ar    1  UNL1        0.1655
      7 N           1.4440   64.1755   70.0021 N.ar    1  UNL1       -0.2239
      8 C           2.6641   64.6178   69.6283 C.ar    1  UNL1        0.0892
      9 C           3.0152   65.8929   69.1275 C.ar    1  UNL1        0.0197
     10 C           4.3123   66.1806   68.7922 C.ar    1  UNL1        0.0016
     11 C           5.3235   65.2413   68.9345 C.ar    1  UNL1        0.0006
     12 C           5.0154   63.9824   69.4165 C.ar    1  UNL1        0.0081
     13 C           3.7188   63.6852   69.7552 C.ar    1  UNL1        0.0497
     14 S           2.8835   62.2546   70.3970 S.2     1  UNL1       -0.0514
     15 C          -1.0059   60.1978   73.7296 C.3     1  UNL1        0.0310
     16 C          -1.9512   60.6403   74.8484 C.3     1  UNL1        0.0928
     17 C          -0.9092   59.0819   76.9197 C.3     1  UNL1        0.0215
     18 C          -2.0433   58.4513   76.1092 C.3     1  UNL1        0.0760
     19 C          -3.0541   57.8030   77.0612 C.3     1  UNL1        0.0377
     20 C          -4.2356   57.2810   76.2365 C.3     1  UNL1        0.0575
     21 N          -4.7914   58.3797   75.4450 N.am    1  UNL1       -0.3190
     22 C          -4.0258   59.4029   75.0373 C.2     1  UNL1        0.1345
     23 S          -4.7446   60.6482   74.1082 S.2     1  UNL1       -0.0186
     24 N          -2.7182   59.4865   75.3245 N.am    1  UNL1       -0.2928
     25 C          -3.7551   56.1694   75.3016 C.3     1  UNL1        0.0197
     26 C          -5.3116   56.7319   77.1755 C.3     1  UNL1        0.0197
     27 H          -5.7467   58.3675   75.2070 H       1  UNL1        0.1483
@<TRIPOS>BOND
     1    17    18    1
     2    18    24    1
     3    18    19    1
     4    19    20    1
     5    20    21    1
     6    20    25    1
     7    20    26    1
     8    21    22    1
     9    22    23    2
    10    22    24    1
    11    24    16    1
    12    16    15    1
    13    15     1    1
    14     1     2    1
    15     2     3    2
    16     2     4   am
    17     4     6    1
    18     6    14   ar
    19     6     7   ar
    20     7     8   ar
    21     8    13   ar
    22     8     9   ar
    23     9    10   ar
    24    10    11   ar
    25    11    12   ar
    26    12    13   ar
    27    13    14   ar
    28    21    27    1
    29     4     5    1
#	Name:			ZINC03722990
#	Creating user name:	trannguyen
#	Creation time:		Thu Dec  1 16:45:04 2022


#	Modifying user name:	trannguyen
#	Modification time:	Thu Dec  1 16:45:04 2022

@<TRIPOS>MOLECULE
ZINC03722990
 24 26 0 0 0
SMALL
GASTEIGER

@<TRIPOS>ATOM
      1 C           1.5823   62.9670   69.6560 C.3     1  UNL1        0.0979
      2 C           2.1180   61.5595   69.6910 C.ar    1  UNL1        0.0274
      3 C           3.0747   61.1947   68.7541 C.ar    1  UNL1        0.0043
      4 C           3.5913   59.9159   68.7439 C.ar    1  UNL1        0.0365
      5 C           3.1522   58.9872   69.6766 C.ar    1  UNL1        0.1333
      6 C           2.1989   59.3525   70.6129 C.ar    1  UNL1        0.0324
      7 C           1.6832   60.6389   70.6206 C.ar    1  UNL1       -0.0116
      8 C           0.6542   60.9933   71.6635 C.3     1  UNL1        0.0871
      9 C          -0.0779   62.2735   71.2602 C.3     1  UNL1        0.1075
     10 O           3.6556   57.7249   69.6720 O.3     1  UNL1       -0.5055
     11 N           0.9249   63.3022   70.9268 N.4     1  UNL1        0.2567
     12 H           4.3004   57.4799   69.0377 H       1  UNL1        0.2922
     13 H           0.4643   64.2081   70.8405 H       1  UNL1        0.2040
     14 H           1.6254   63.3405   71.6672 H       1  UNL1        0.2040
     15 C           5.0591   64.4321   69.5196 C.ar    1  UNL1       -0.0002
     16 C           4.0139   63.5538   69.7379 C.ar    1  UNL1        0.0015
     17 C           2.7209   63.9260   69.4220 C.ar    1  UNL1        0.0309
     18 C           2.4714   65.1804   68.8969 C.ar    1  UNL1        0.0054
     19 C           3.5157   66.0600   68.6822 C.ar    1  UNL1        0.0713
     20 C           4.8099   65.6856   68.9933 C.ar    1  UNL1        0.0038
     21 C           3.2440   67.4268   68.1088 C.3     1  UNL1        0.4186
     22 F           3.2870   68.3791   69.1328 F       1  UNL1       -0.1659
     23 F           4.2143   67.7309   67.1481 F       1  UNL1       -0.1659
     24 F           1.9780   67.4394   67.5133 F       1  UNL1       -0.1659
@<TRIPOS>UNITY_ATOM_ATTR
11 1
charge 1
@<TRIPOS>BOND
     1    15    20   ar
     2    15    16   ar
     3    16    17   ar
     4    17    18   ar
     5    17     1    1
     6    18    19   ar
     7    19    20   ar
     8    19    21    1
     9    21    22    1
    10    21    23    1
    11    21    24    1
    12     1     2    1
    13     1    11    1
    14     2     7   ar
    15     2     3   ar
    16     3     4   ar
    17     4     5   ar
    18     5     6   ar
    19     5    10    1
    20     6     7   ar
    21     7     8    1
    22     8     9    1
    23     9    11    1
    24    10    12    1
    25    11    13    1
    26    11    14    1
#	Name:			ZINC03861649
#	Creating user name:	trannguyen
#	Creation time:		Thu Dec  1 16:45:04 2022


#	Modifying user name:	trannguyen
#	Modification time:	Thu Dec  1 16:45:04 2022

@<TRIPOS>MOLECULE
ZINC03861649
 16 17 0 0 0
SMALL
GASTEIGER

@<TRIPOS>ATOM
      1 N           3.5756   61.8118   68.9713 N.2     1  UNL1       -0.2454
      2 C           2.5713   61.6224   69.8125 C.2     1  UNL1        0.0814
      3 C           2.2265   60.2669   70.2465 C.2     1  UNL1        0.0207
      4 C           1.2052   60.0722   71.1020 C.2     1  UNL1        0.0239
      5 C           0.4369   61.2201   71.5997 C.2     1  UNL1        0.1193
      6 N          -0.5599   61.0322   72.4339 N.2     1  UNL1       -0.0864
      7 O          -1.3003   62.1399   72.9135 O.2     1  UNL1       -0.4087
      8 C           0.7806   62.5778   71.1591 C.2     1  UNL1        0.0239
      9 C           1.8065   62.7688   70.3082 C.2     1  UNL1        0.0207
     10 H          -2.0114   62.0058   73.5086 H       1  UNL1        0.3278
     11 C           4.8006   65.6457   68.0468 C.ar    1  UNL1        0.0001
     12 C           4.0141   64.9399   67.1520 C.ar    1  UNL1        0.0015
     13 C           3.6008   63.6601   67.4522 C.ar    1  UNL1        0.0191
     14 C           3.9784   63.0733   68.6672 C.ar    1  UNL1        0.0813
     15 C           4.7694   63.7973   69.5694 C.ar    1  UNL1        0.0191
     16 C           5.1782   65.0739   69.2501 C.ar    1  UNL1        0.0015
@<TRIPOS>BOND
     1    11    16   ar
     2    11    12   ar
     3    12    13   ar
     4    13    14   ar
     5    14    15   ar
     6    14     1    1
     7    15    16   ar
     8     1     2    2
     9     2     9    1
    10     2     3    1
    11     3     4    2
    12     4     5    1
    13     5     6    2
    14     5     8    1
    15     6     7    1
    16     8     9    2
    17     7    10    1
#	Name:			ZINC03878372
#	Creating user name:	trannguyen
#	Creation time:		Thu Dec  1 16:45:04 2022


#	Modifying user name:	trannguyen
#	Modification time:	Thu Dec  1 16:45:04 2022

@<TRIPOS>MOLECULE
ZINC03878372
 39 42 0 0 0
SMALL
GASTEIGER

@<TRIPOS>ATOM
      1 O          -3.4285   60.8133   73.5256 O.3     1  UNL1       -0.4724
      2 C          -4.1468   60.0327   74.3781 C.ar    1  UNL1        0.1729
      3 C          -3.5472   58.9466   74.9944 C.ar    1  UNL1        0.0413
      4 C          -4.2741   58.1553   75.8639 C.ar    1  UNL1        0.0174
      5 C          -5.6097   58.4417   76.1142 C.ar    1  UNL1        0.0448
      6 C          -6.2150   59.5262   75.4942 C.ar    1  UNL1        0.0547
      7 C          -5.4852   60.3222   74.6263 C.ar    1  UNL1        0.1802
      8 N          -6.3453   57.6367   76.9909 N.pl3   1  UNL1       -0.3569
      9 H          -5.9160   56.8676   77.4306 H       1  UNL1        0.1424
     10 H          -7.2923   57.8395   77.1681 H       1  UNL1        0.1424
     11 O          -6.0757   61.3852   74.0182 O.3     1  UNL1       -0.4504
     12 C          -6.3877   62.4657   74.7825 C.ar    1  UNL1        0.1455
     13 C          -5.3866   63.1517   75.4547 C.ar    1  UNL1        0.0387
     14 C          -5.7020   64.2521   76.2271 C.ar    1  UNL1        0.0172
     15 C          -7.0230   64.6657   76.3393 C.ar    1  UNL1        0.0417
     16 C          -8.0252   63.9752   75.6705 C.ar    1  UNL1        0.0172
     17 C          -7.7076   62.8780   74.8943 C.ar    1  UNL1        0.0387
     18 N          -7.3440   65.7773   77.1262 N.pl3   1  UNL1       -0.3570
     19 H          -6.6334   66.2666   77.6003 H       1  UNL1        0.1424
     20 H          -8.2806   66.0701   77.2058 H       1  UNL1        0.1424
     21 C          -2.0378   60.9762   73.8108 C.3     1  UNL1        0.2056
     22 C          -1.2476   60.9973   72.5009 C.3     1  UNL1        0.0473
     23 C           0.2379   60.7819   72.7978 C.3     1  UNL1        0.0040
     24 C           0.8873   60.0320   71.6330 C.3     1  UNL1        0.0040
     25 C           1.4828   61.0389   70.6470 C.3     1  UNL1        0.0473
     26 C           2.1093   62.2008   71.4204 C.3     1  UNL1        0.2054
     27 O           3.4245   62.4514   70.9211 O.3     1  UNL1       -0.4755
     28 C           3.8593   65.5929   68.2775 C.ar    1  UNL1        0.0002
     29 C           2.6003   65.2765   68.7849 C.ar    1  UNL1        0.0031
     30 C           2.4573   64.2229   69.6631 C.ar    1  UNL1        0.0369
     31 C           3.5675   63.4850   70.0509 C.ar    1  UNL1        0.1386
     32 C           4.8237   63.8015   69.5515 C.ar    1  UNL1        0.0369
     33 C           4.9720   64.8504   68.6685 C.ar    1  UNL1        0.0031
     34 C           4.3075   68.8289   65.5557 C.ar    1  UNL1        0.0000
     35 C           3.3289   68.8802   66.5319 C.ar    1  UNL1        0.0000
     36 C           3.1788   67.8326   67.4179 C.ar    1  UNL1        0.0000
     37 C           4.0154   66.7219   67.3277 C.ar    1  UNL1        0.0000
     38 C           5.0030   66.6779   66.3455 C.ar    1  UNL1        0.0000
     39 C           5.1411   67.7290   65.4618 C.ar    1  UNL1        0.0000
@<TRIPOS>BOND
     1    34    39   ar
     2    34    35   ar
     3    35    36   ar
     4    36    37   ar
     5    37    38   ar
     6    37    28    1
     7    38    39   ar
     8    28    33   ar
     9    28    29   ar
    10    29    30   ar
    11    30    31   ar
    12    31    32   ar
    13    31    27    1
    14    32    33   ar
    15    27    26    1
    16    26    25    1
    17    25    24    1
    18    24    23    1
    19    23    22    1
    20    22    21    1
    21    21     1    1
    22     1     2    1
    23     2     7   ar
    24     2     3   ar
    25     3     4   ar
    26     4     5   ar
    27     5     6   ar
    28     5     8    1
    29     6     7   ar
    30     7    11    1
    31    11    12    1
    32    12    17   ar
    33    12    13   ar
    34    13    14   ar
    35    14    15   ar
    36    15    16   ar
    37    15    18    1
    38    16    17   ar
    39    18    19    1
    40    18    20    1
    41     8     9    1
    42     8    10    1
#	Name:			ZINC04094085
#	Creating user name:	trannguyen
#	Creation time:		Thu Dec  1 16:45:04 2022


#	Modifying user name:	trannguyen
#	Modification time:	Thu Dec  1 16:45:04 2022

@<TRIPOS>MOLECULE
ZINC04094085
 21 23 0 0 0
SMALL
GASTEIGER

@<TRIPOS>ATOM
      1 C           3.0445   64.9767   69.1422 C.3     1  UNL1        0.2355
      2 O           3.8676   63.8214   69.3770 O.3     1  UNL1       -0.3276
      3 C           3.0894   62.8997   70.1614 C.3     1  UNL1        0.1804
      4 C           1.7156   63.5829   70.3386 C.3     1  UNL1        0.2019
      5 O           1.6773   64.5224   69.2369 O.3     1  UNL1       -0.3242
      6 C           5.7594   65.6694   68.3765 C.3     1  UNL1        0.0005
      7 C           4.7456   65.2097   67.3311 C.3     1  UNL1        0.0092
      8 C           5.0722   65.8209   65.9706 C.3     1  UNL1        0.0219
      9 C           4.7294   67.2807   65.9650 C.2     1  UNL1       -0.0482
     10 C           3.8280   67.7984   66.7344 C.2     1  UNL1       -0.0348
     11 C           3.0233   67.0361   67.7369 C.3     1  UNL1        0.0263
     12 C           3.3166   65.5450   67.7410 C.3     1  UNL1        0.0608
     13 C           3.2100   67.6349   69.1316 C.3     1  UNL1        0.0048
     14 C           5.4633   68.1846   65.0109 C.3     1  UNL1        0.0260
     15 C           0.5805   62.5638   70.2210 C.3     1  UNL1        0.1379
     16 C          -1.0496   61.7712   71.8467 C.3     1  UNL1        0.1056
     17 C          -1.0744   60.6355   72.9003 C.3     1  UNL1        0.0670
     18 C           0.0104   59.6621   72.3849 C.3     1  UNL1        0.0670
     19 C           0.9207   60.5156   71.4827 C.3     1  UNL1        0.1056
     20 N           0.3840   61.8763   71.5327 N.4     1  UNL1        0.2778
     21 H           0.8678   62.4259   72.2429 H       1  UNL1        0.2068
@<TRIPOS>UNITY_ATOM_ATTR
20 1
charge 1
@<TRIPOS>BOND
     1     6     7    1
     2     7    12    1
     3     7     8    1
     4     8     9    1
     5     9    10    2
     6     9    14    1
     7    10    11    1
     8    11    12    1
     9    11    13    1
    10    12     1    1
    11     1     5    1
    12     1     2    1
    13     2     3    1
    14     3     4    1
    15     4     5    1
    16     4    15    1
    17    15    20    1
    18    16    17    1
    19    16    20    1
    20    17    18    1
    21    18    19    1
    22    19    20    1
    23    20    21    1
#	Name:			ZINC04245221
#	Creating user name:	trannguyen
#	Creation time:		Thu Dec  1 16:45:04 2022


#	Modifying user name:	trannguyen
#	Modification time:	Thu Dec  1 16:45:04 2022

@<TRIPOS>MOLECULE
ZINC04245221
 17 18 0 0 0
SMALL
GASTEIGER

@<TRIPOS>ATOM
      1 C           1.3513   58.9695   75.3575 C.ar    1  UNL1        0.0852
      2 C           1.9919   59.5832   76.3960 C.ar    1  UNL1        0.0278
      3 S           3.3384   58.4417   76.6789 S.2     1  UNL1       -0.0563
      4 C           2.9210   57.2764   75.3898 C.ar    1  UNL1        0.1564
      5 N           1.8364   57.8270   74.8766 N.ar    1  UNL1       -0.2248
      6 N           3.5656   56.1054   75.0250 N.pl3   1  UNL1       -0.3375
      7 C           1.6550   60.8677   77.1086 C.3     1  UNL1        0.0398
      8 H           4.3750   55.8186   75.5065 H       1  UNL1        0.1442
      9 H           3.2142   55.5603   74.2843 H       1  UNL1        0.1442
     10 C          -0.8406   61.6143   71.7347 C.3     1  UNL1        0.0334
     11 C          -0.9255   60.8468   73.0288 C.ar    1  UNL1        0.0057
     12 C           0.2122   60.2875   73.5739 C.ar    1  UNL1       -0.0005
     13 C           0.1314   59.5730   74.7679 C.ar    1  UNL1        0.0177
     14 C          -1.0994   59.4269   75.4060 C.ar    1  UNL1        0.0038
     15 C          -2.2314   59.9897   74.8535 C.ar    1  UNL1        0.0294
     16 C          -2.1464   60.6991   73.6664 C.ar    1  UNL1        0.1361
     17 F          -3.2576   61.2480   73.1288 F       1  UNL1       -0.2045
@<TRIPOS>BOND
     1    10    11    1
     2    11    16   ar
     3    11    12   ar
     4    12    13   ar
     5    13    14   ar
     6    13     1    1
     7    14    15   ar
     8    15    16   ar
     9    16    17    1
    10     1     5   ar
    11     1     2   ar
    12     2     3   ar
    13     2     7    1
    14     3     4   ar
    15     4     5   ar
    16     4     6    1
    17     6     8    1
    18     6     9    1
#	Name:			ZINC04256843
#	Creating user name:	trannguyen
#	Creation time:		Thu Dec  1 16:45:04 2022


#	Modifying user name:	trannguyen
#	Modification time:	Thu Dec  1 16:45:04 2022

@<TRIPOS>MOLECULE
ZINC04256843
 44 48 0 0 0
SMALL
GASTEIGER

@<TRIPOS>ATOM
      1 C           1.0068   61.3428   72.3295 C.3     1  UNL1        0.1678
      2 C           0.8610   60.2254   73.3653 C.3     1  UNL1        0.1678
      3 C          -1.5279   60.6095   73.4426 C.3     1  UNL1        0.1678
      4 C          -1.3816   61.7271   72.4072 C.3     1  UNL1        0.1678
      5 N          -0.2337   61.4162   71.5294 N.4     1  UNL1        0.2885
      6 N          -0.2870   60.5360   74.2428 N.4     1  UNL1        0.2885
      7 H          -0.3933   60.5140   71.0811 H       1  UNL1        0.2076
      8 H          -0.1272   61.4382   74.6911 H       1  UNL1        0.2076
      9 C          -0.1007   62.4541   70.4849 C.3     1  UNL1        0.1363
     10 C           3.6189   60.0999   68.1061 C.3     1  UNL1        0.0310
     11 C           3.0937   61.3160   68.8247 C.ar    1  UNL1       -0.0221
     12 C           1.7967   61.3282   69.3034 C.ar    1  UNL1        0.0002
     13 C           1.3131   62.4413   69.9633 C.ar    1  UNL1        0.0657
     14 C           2.1283   63.5498   70.1405 C.ar    1  UNL1        0.1314
     15 C           3.4310   63.5332   69.6634 C.ar    1  UNL1        0.0148
     16 C           3.9099   62.4174   69.0046 C.ar    1  UNL1       -0.0052
     17 O           1.6533   64.6483   70.7843 O.3     1  UNL1       -0.5059
     18 H           0.7734   64.6587   71.1062 H       1  UNL1        0.2922
     19 C           4.3209   64.7336   69.8587 C.3     1  UNL1        0.0475
     20 C           5.7839   64.2859   69.8793 C.3     1  UNL1        0.0095
     21 C           4.1090   65.7055   68.7266 C.ar    1  UNL1       -0.0183
     22 C           3.1234   66.6703   68.8194 C.ar    1  UNL1       -0.0040
     23 C           2.9318   67.5646   67.7829 C.ar    1  UNL1       -0.0003
     24 C           3.7199   67.4884   66.6497 C.ar    1  UNL1       -0.0000
     25 C           4.7021   66.5203   66.5548 C.ar    1  UNL1       -0.0003
     26 C           4.8965   65.6288   67.5931 C.ar    1  UNL1       -0.0040
     27 C          -0.4202   59.4983   75.2874 C.3     1  UNL1        0.1363
     28 C           0.8702   59.4067   76.0604 C.ar    1  UNL1        0.0657
     29 C           1.2720   60.4578   76.8619 C.ar    1  UNL1        0.0002
     30 C           2.4557   60.3744   77.5714 C.ar    1  UNL1       -0.0221
     31 C           3.2401   59.2393   77.4811 C.ar    1  UNL1       -0.0052
     32 C           2.8425   58.1854   76.6814 C.ar    1  UNL1        0.0148
     33 C           1.6528   58.2647   75.9723 C.ar    1  UNL1        0.1314
     34 O           1.2569   57.2271   75.1889 O.3     1  UNL1       -0.5059
     35 C           2.8921   61.5229   78.4441 C.3     1  UNL1        0.0310
     36 H           0.4532   57.2814   74.7102 H       1  UNL1        0.2922
     37 C           3.6977   56.9484   76.5838 C.3     1  UNL1        0.0475
     38 C           4.9172   57.2393   75.7069 C.3     1  UNL1        0.0095
     39 C           4.1546   56.5437   77.9617 C.ar    1  UNL1       -0.0183
     40 C           5.5038   56.4082   78.2303 C.ar    1  UNL1       -0.0040
     41 C           5.9232   56.0413   79.4954 C.ar    1  UNL1       -0.0003
     42 C           4.9930   55.8012   80.4894 C.ar    1  UNL1       -0.0000
     43 C           3.6436   55.9317   80.2193 C.ar    1  UNL1       -0.0003
     44 C           3.2244   56.3028   78.9554 C.ar    1  UNL1       -0.0040
@<TRIPOS>UNITY_ATOM_ATTR
5 1
charge 1
6 1
charge 1
@<TRIPOS>BOND
     1    10    11    1
     2    11    16   ar
     3    11    12   ar
     4    12    13   ar
     5    13    14   ar
     6    13     9    1
     7    14    15   ar
     8    14    17    1
     9    15    16   ar
    10    15    19    1
    11    19    20    1
    12    19    21    1
    13    21    26   ar
    14    21    22   ar
    15    22    23   ar
    16    23    24   ar
    17    24    25   ar
    18    25    26   ar
    19     9     5    1
    20     1     2    1
    21     1     5    1
    22     2     6    1
    23     3     4    1
    24     3     6    1
    25     4     5    1
    26    27    28    1
    27    27     6    1
    28    28    33   ar
    29    28    29   ar
    30    29    30   ar
    31    30    31   ar
    32    30    35    1
    33    31    32   ar
    34    32    33   ar
    35    32    37    1
    36    33    34    1
    37    37    38    1
    38    37    39    1
    39    39    44   ar
    40    39    40   ar
    41    40    41   ar
    42    41    42   ar
    43    42    43   ar
    44    43    44   ar
    45    17    18    1
    46    34    36    1
    47     5     7    1
    48     6     8    1
#	Name:			ZINC04535360
#	Creating user name:	trannguyen
#	Creation time:		Thu Dec  1 16:45:04 2022


#	Modifying user name:	trannguyen
#	Modification time:	Thu Dec  1 16:45:04 2022

@<TRIPOS>MOLECULE
ZINC04535360
 24 27 0 0 0
SMALL
GASTEIGER

@<TRIPOS>ATOM
      1 C          -7.1637   65.0951   75.7283 C.ar    1  UNL1        0.0010
      2 C          -6.6155   64.0807   76.4897 C.ar    1  UNL1       -0.0030
      3 C          -6.6917   62.7672   76.0698 C.ar    1  UNL1       -0.0081
      4 C          -7.3346   62.4399   74.8793 C.ar    1  UNL1        0.0538
      5 C          -7.8820   63.4782   74.1113 C.ar    1  UNL1        0.0545
      6 C          -7.7942   64.7910   74.5358 C.ar    1  UNL1        0.0153
      7 N          -8.5236   63.1821   72.9026 N.pl3   1  UNL1       -0.3560
      8 N          -7.4767   61.1390   74.3915 N.pl3   1  UNL1       -0.3299
      9 C          -6.7976   60.0790   75.1528 C.3     1  UNL1        0.0921
     10 C          -6.9552   60.4078   76.6207 C.3     1  UNL1        0.0262
     11 C          -6.0807   61.6716   76.8715 C.3     1  UNL1        0.0255
     12 C          -6.1325   61.7742   78.3945 C.3     1  UNL1        0.0045
     13 C          -5.9557   60.2941   78.8409 C.3     1  UNL1        0.0004
     14 C          -6.4279   59.4209   77.6482 C.3     1  UNL1        0.0023
     15 H          -8.5888   62.2489   72.5956 H       1  UNL1        0.1424
     16 H          -8.9094   63.9070   72.3596 H       1  UNL1        0.1424
     17 H          -8.0022   60.9422   73.5826 H       1  UNL1        0.1471
     18 C          -5.3355   60.0426   74.7893 C.ar    1  UNL1       -0.0045
     19 C          -4.7794   61.0756   74.0580 C.ar    1  UNL1       -0.0018
     20 C          -3.4373   61.0455   73.7293 C.ar    1  UNL1        0.0111
     21 C          -2.6529   59.9758   74.1224 C.ar    1  UNL1        0.0577
     22 C          -3.2113   58.9395   74.8495 C.ar    1  UNL1        0.0111
     23 C          -4.5523   58.9735   75.1826 C.ar    1  UNL1       -0.0018
     24 CL         -0.9685   59.9341   73.7042 Cl      1  UNL1       -0.0822
@<TRIPOS>BOND
     1     1     6   ar
     2     1     2   ar
     3     2     3   ar
     4     3    11    1
     5     3     4   ar
     6     4     5   ar
     7     4     8    1
     8     5     6   ar
     9     5     7    1
    10     8     9    1
    11     9    10    1
    12     9    18    1
    13    10    14    1
    14    10    11    1
    15    11    12    1
    16    12    13    1
    17    13    14    1
    18    18    23   ar
    19    18    19   ar
    20    19    20   ar
    21    20    21   ar
    22    21    22   ar
    23    21    24    1
    24    22    23   ar
    25     7    15    1
    26     7    16    1
    27     8    17    1
#	Name:			ZINC04924409
#	Creating user name:	trannguyen
#	Creation time:		Thu Dec  1 16:45:04 2022


#	Modifying user name:	trannguyen
#	Modification time:	Thu Dec  1 16:45:04 2022

@<TRIPOS>MOLECULE
ZINC04924409
 17 19 0 0 0
SMALL
GASTEIGER

@<TRIPOS>ATOM
      1 C           2.0934   65.7432   68.1221 C.3     1  UNL1        0.0003
      2 C           3.5526   66.0018   68.5030 C.3     1  UNL1        0.0043
      3 C           4.5617   65.5887   67.4186 C.3     1  UNL1        0.0050
      4 C           4.1220   64.3465   66.6326 C.3     1  UNL1        0.0259
      5 C           3.5849   63.3045   67.5839 C.2     1  UNL1       -0.0243
      6 C           3.6083   63.5432   68.8977 C.2     1  UNL1        0.0451
      7 C           4.1889   64.8723   69.3501 C.3     1  UNL1        0.0281
      8 C           5.4871   65.2011   68.5897 C.3     1  UNL1        0.0049
      9 C           3.7874   67.4052   69.0655 C.3     1  UNL1        0.0003
     10 C           3.1009   62.5618   69.8629 C.2     1  UNL1        0.3072
     11 N           2.6665   61.4087   69.4497 N.2     1  UNL1       -0.1075
     12 H           2.6780   61.1938   68.4890 H       1  UNL1        0.4882
     13 N           2.1818   60.4715   70.3714 N.ar    1  UNL1       -0.0719
     14 C           2.5046   59.1487   70.4468 C.ar    1  UNL1        0.2665
     15 N           1.8340   58.6441   71.4473 N.ar    1  UNL1       -0.1193
     16 N           1.1107   59.5554   71.9936 N.ar    1  UNL1       -0.1193
     17 C           1.2852   60.6921   71.3749 C.ar    1  UNL1        0.2665
@<TRIPOS>UNITY_ATOM_ATTR
11 1
charge 1
@<TRIPOS>BOND
     1     1     2    1
     2     2     7    1
     3     2     3    1
     4     2     9    1
     5     3     8    1
     6     3     4    1
     7     4     5    1
     8     5     6    2
     9     6     7    1
    10     6    10    1
    11     7     8    1
    12    10    11    2
    13    11    13    1
    14    13    17   ar
    15    13    14   ar
    16    14    15   ar
    17    15    16   ar
    18    16    17   ar
    19    11    12    1
#	Name:			ZINC04932978
#	Creating user name:	trannguyen
#	Creation time:		Thu Dec  1 16:45:04 2022


#	Modifying user name:	trannguyen
#	Modification time:	Thu Dec  1 16:45:04 2022

@<TRIPOS>MOLECULE
ZINC04932978
 20 22 0 0 0
SMALL
GASTEIGER

@<TRIPOS>ATOM
      1 C           0.3517   61.7836   70.9383 C.ar    1  UNL1        0.0641
      2 C          -0.7435   62.3019   71.5971 C.ar    1  UNL1        0.0191
      3 C          -1.2181   61.3041   72.4595 C.ar    1  UNL1        0.0205
      4 C          -0.4241   60.2188   72.3167 C.ar    1  UNL1        0.0802
      5 N           0.5352   60.4951   71.3879 N.ar    1  UNL1       -0.3035
      6 C           1.5411   59.6163   70.9643 C.ar    1  UNL1        0.0832
      7 C           1.6526   58.3468   71.5258 C.ar    1  UNL1        0.0207
      8 C           2.6594   57.5120   71.0700 C.ar    1  UNL1        0.0222
      9 C           3.5212   57.9665   70.0889 C.ar    1  UNL1        0.0990
     10 N           3.3920   59.1768   69.5815 N.ar    1  UNL1       -0.2408
     11 C           2.4446   60.0007   69.9829 C.ar    1  UNL1        0.1163
     12 C           1.7315   63.6639   70.2332 C.2     1  UNL1        0.0019
     13 C           1.1674   62.4756   69.9380 C.2     1  UNL1        0.0175
     14 C           5.2543   66.1298   66.5317 C.3     1  UNL1        0.4085
     15 N           4.3446   65.4930   67.4874 N.ar    1  UNL1       -0.1534
     16 C           3.8288   66.2209   68.4605 C.ar    1  UNL1        0.2903
     17 C           2.9733   65.6627   69.3854 C.ar    1  UNL1        0.0758
     18 C           2.6448   64.3034   69.2731 C.ar    1  UNL1        0.0123
     19 C           3.2122   63.5713   68.2195 C.ar    1  UNL1        0.0758
     20 C           4.0626   64.2113   67.3443 C.ar    1  UNL1        0.2903
@<TRIPOS>UNITY_ATOM_ATTR
15 1
charge 1
@<TRIPOS>BOND
     1    14    15    1
     2    15    20   ar
     3    15    16   ar
     4    16    17   ar
     5    17    18   ar
     6    18    19   ar
     7    18    12    1
     8    19    20   ar
     9    12    13    2
    10    13     1    1
    11     1     5   ar
    12     1     2   ar
    13     2     3   ar
    14     3     4   ar
    15     4     5   ar
    16     5     6    1
    17     6    11   ar
    18     6     7   ar
    19     7     8   ar
    20     8     9   ar
    21     9    10   ar
    22    10    11   ar
#	Name:			ZINC04940394
#	Creating user name:	trannguyen
#	Creation time:		Thu Dec  1 16:45:04 2022


#	Modifying user name:	trannguyen
#	Modification time:	Thu Dec  1 16:45:04 2022

@<TRIPOS>MOLECULE
ZINC04940394
 19 20 0 0 0
SMALL
GASTEIGER

@<TRIPOS>ATOM
      1 C           0.5409   63.1762   70.2168 C.2     1  UNL1        0.2848
      2 O          -0.1470   63.5721   69.2954 O.2     1  UNL1       -0.2667
      3 N           1.7493   63.7290   70.4416 N.am    1  UNL1       -0.2013
      4 H           2.3060   63.4085   71.1876 H       1  UNL1        0.1776
      5 C          -2.2376   60.6924   73.4119 C.3     1  UNL1        0.1538
      6 N          -1.1535   61.0078   72.4783 N.ar    1  UNL1       -0.2464
      7 C          -0.1417   60.1662   72.1502 C.ar    1  UNL1        0.1082
      8 C           0.6497   60.8193   71.2657 C.ar    1  UNL1        0.1002
      9 C           0.0520   62.0903   71.0892 C.ar    1  UNL1        0.1676
     10 N          -1.0235   62.1215   71.8512 N.ar    1  UNL1       -0.1636
     11 CL          2.0937   60.2231   70.5085 Cl      1  UNL1       -0.0788
     12 N           2.2132   64.7595   69.6137 N.2     1  UNL1       -0.1820
     13 C           3.4657   65.0166   69.5524 C.2     1  UNL1        0.0911
     14 C           3.9648   66.1252   68.6619 C.3     1  UNL1        0.0477
     15 C           2.7732   66.9052   68.0925 C.3     1  UNL1        0.0110
     16 C           3.3083   68.1263   67.3412 C.3     1  UNL1        0.0261
     17 C           4.3988   67.7145   66.3960 C.2     1  UNL1       -0.0307
     18 C           5.0316   66.5874   66.4655 C.2     1  UNL1       -0.0303
     19 C           4.7609   65.5310   67.4978 C.3     1  UNL1        0.0317
@<TRIPOS>BOND
     1     5     6    1
     2     6    10   ar
     3     6     7   ar
     4     7     8   ar
     5     8     9   ar
     6     8    11    1
     7     9    10   ar
     8     9     1    1
     9     1     2    2
    10     1     3   am
    11     3    12    1
    12    12    13    2
    13    13    14    1
    14    14    19    1
    15    14    15    1
    16    15    16    1
    17    16    17    1
    18    17    18    2
    19    18    19    1
    20     3     4    1
#	Name:			ZINC04970684
#	Creating user name:	trannguyen
#	Creation time:		Thu Dec  1 16:45:04 2022


#	Modifying user name:	trannguyen
#	Modification time:	Thu Dec  1 16:45:04 2022

@<TRIPOS>MOLECULE
ZINC04970684
 25 28 0 0 0
SMALL
GASTEIGER

@<TRIPOS>ATOM
      1 C          -0.2424   60.8481   72.4988 C.ar    1  UNL1        0.1138
      2 C          -1.5340   61.2931   72.4701 C.ar    1  UNL1        0.0235
      3 C          -2.1516   60.8532   73.6475 C.ar    1  UNL1        0.0203
      4 C          -1.2362   60.1536   74.3574 C.ar    1  UNL1        0.0763
      5 N          -0.0682   60.1409   73.6646 N.ar    1  UNL1       -0.3181
      6 C           2.2904   62.1088   70.1472 C.3     1  UNL1        0.1543
      7 C           2.4972   60.5756   70.0962 C.3     1  UNL1        0.2316
      8 O           1.2667   60.1007   70.6763 O.2     1  UNL1       -0.4573
      9 C           0.7778   61.0812   71.4655 C.2     1  UNL1        0.2368
     10 N           1.2976   62.2500   71.2300 N.2     1  UNL1       -0.2344
     11 C           3.5945   62.8244   70.5051 C.3     1  UNL1        0.0546
     12 C           4.7828   65.3295   67.2556 C.ar    1  UNL1       -0.0000
     13 C           5.4157   65.4385   68.4796 C.ar    1  UNL1       -0.0003
     14 C           5.0314   64.6277   69.5312 C.ar    1  UNL1       -0.0042
     15 C           4.0136   63.7084   69.3588 C.ar    1  UNL1       -0.0201
     16 C           3.3838   63.5960   68.1334 C.ar    1  UNL1       -0.0042
     17 C           3.7652   64.4099   67.0831 C.ar    1  UNL1       -0.0003
     18 C           1.1720   59.4881   74.0914 C.3     1  UNL1        0.1337
     19 C           1.3153   59.6106   75.5866 C.ar    1  UNL1        0.0110
     20 C           1.1368   60.8364   76.2001 C.ar    1  UNL1       -0.0016
     21 C           1.2640   60.9480   77.5719 C.ar    1  UNL1       -0.0002
     22 C           1.5793   59.8357   78.3302 C.ar    1  UNL1        0.0008
     23 C           1.7631   58.6108   77.7175 C.ar    1  UNL1        0.0111
     24 C           1.6312   58.4975   76.3447 C.ar    1  UNL1        0.0555
     25 CL          1.8626   56.9592   75.5742 Cl      1  UNL1       -0.0825
@<TRIPOS>BOND
     1    12    17   ar
     2    12    13   ar
     3    13    14   ar
     4    14    15   ar
     5    15    16   ar
     6    15    11    1
     7    16    17   ar
     8    11     6    1
     9     6    10    1
    10     6     7    1
    11     7     8    1
    12     8     9    1
    13     9    10    2
    14     9     1    1
    15     1     5   ar
    16     1     2   ar
    17     2     3   ar
    18     3     4   ar
    19     4     5   ar
    20     5    18    1
    21    18    19    1
    22    19    24   ar
    23    19    20   ar
    24    20    21   ar
    25    21    22   ar
    26    22    23   ar
    27    23    24   ar
    28    24    25    1
#	Name:			ZINC05119203
#	Creating user name:	trannguyen
#	Creation time:		Thu Dec  1 16:45:04 2022


#	Modifying user name:	trannguyen
#	Modification time:	Thu Dec  1 16:45:04 2022

@<TRIPOS>MOLECULE
ZINC05119203
 42 46 0 0 0
SMALL
GASTEIGER

@<TRIPOS>ATOM
      1 C           2.0051   61.2235   78.9233 C.3     1  UNL1        0.1604
      2 N           3.3809   61.4931   78.4696 N.4     1  UNL1        0.2369
      3 H           3.6238   60.8473   77.7185 H       1  UNL1        0.2008
      4 H           4.0267   61.3667   79.2489 H       1  UNL1        0.2008
      5 H           3.4443   62.4519   78.1276 H       1  UNL1        0.2008
      6 C           1.0621   61.4056   77.7619 C.2     1  UNL1        0.3685
      7 O           0.6035   62.4973   77.5215 O.2     1  UNL1       -0.2437
      8 O           0.7317   60.3550   76.9946 O.3     1  UNL1       -0.4392
      9 C          -0.6337   60.3009   76.5034 C.3     1  UNL1        0.2136
     10 C          -2.5078   56.7241   77.8966 C.ar    1  UNL1       -0.0000
     11 C          -3.2230   57.9061   77.8500 C.ar    1  UNL1       -0.0002
     12 C          -2.6164   59.0636   77.3994 C.ar    1  UNL1       -0.0005
     13 C          -1.2948   59.0391   76.9951 C.ar    1  UNL1        0.0216
     14 C          -0.5812   57.8559   77.0363 C.ar    1  UNL1       -0.0005
     15 C          -1.1861   56.6995   77.4922 C.ar    1  UNL1       -0.0002
     16 C          -0.6261   60.3098   74.9965 C.ar    1  UNL1        0.0216
     17 C           0.5312   59.9947   74.3092 C.ar    1  UNL1       -0.0005
     18 C           0.5366   59.9977   72.9269 C.ar    1  UNL1       -0.0002
     19 C          -0.6121   60.3265   72.2319 C.ar    1  UNL1       -0.0000
     20 C          -1.7679   60.6471   72.9191 C.ar    1  UNL1       -0.0002
     21 C          -1.7750   60.6386   74.3015 C.ar    1  UNL1       -0.0005
     22 C           1.8884   59.7938   79.4556 C.3     1  UNL1        0.1248
     23 S           3.5114   59.2313   80.0385 S.3     1  UNL1       -0.1228
     24 C           3.5604   57.4781   79.5757 C.3     1  UNL1        0.0955
     25 C           2.5273   56.7200   80.3687 C.ar    1  UNL1       -0.0060
     26 C           1.1997   57.1016   80.3176 C.ar    1  UNL1       -0.0029
     27 C           0.2514   56.4032   81.0413 C.ar    1  UNL1       -0.0003
     28 C           0.6321   55.3293   81.8240 C.ar    1  UNL1       -0.0000
     29 C           1.9606   54.9511   81.8796 C.ar    1  UNL1       -0.0003
     30 C           2.9082   55.6463   81.1518 C.ar    1  UNL1       -0.0029
     31 C           3.2661   57.3386   78.1043 C.ar    1  UNL1       -0.0060
     32 C           2.5723   56.2370   77.6396 C.ar    1  UNL1       -0.0029
     33 C           2.2981   56.1115   76.2905 C.ar    1  UNL1       -0.0003
     34 C           2.7266   57.0825   75.4048 C.ar    1  UNL1       -0.0000
     35 C           3.4255   58.1812   75.8688 C.ar    1  UNL1       -0.0003
     36 C           3.6950   58.3094   77.2185 C.ar    1  UNL1       -0.0029
     37 C           4.9288   56.9191   79.8693 C.ar    1  UNL1       -0.0060
     38 C           5.6888   57.4538   80.8928 C.ar    1  UNL1       -0.0029
     39 C           6.9420   56.9378   81.1653 C.ar    1  UNL1       -0.0003
     40 C           7.4393   55.8940   80.4078 C.ar    1  UNL1       -0.0000
     41 C           6.6817   55.3630   79.3806 C.ar    1  UNL1       -0.0003
     42 C           5.4264   55.8755   79.1116 C.ar    1  UNL1       -0.0029
@<TRIPOS>UNITY_ATOM_ATTR
2 1
charge 1
@<TRIPOS>BOND
     1    10    15   ar
     2    10    11   ar
     3    11    12   ar
     4    12    13   ar
     5    13    14   ar
     6    13     9    1
     7    14    15   ar
     8     9    16    1
     9     9     8    1
    10    16    21   ar
    11    16    17   ar
    12    17    18   ar
    13    18    19   ar
    14    19    20   ar
    15    20    21   ar
    16     8     6    1
    17     6     7    2
    18     6     1    1
    19     1    22    1
    20     1     2    1
    21    22    23    1
    22    23    24    1
    23    24    25    1
    24    24    31    1
    25    24    37    1
    26    25    30   ar
    27    25    26   ar
    28    26    27   ar
    29    27    28   ar
    30    28    29   ar
    31    29    30   ar
    32    31    36   ar
    33    31    32   ar
    34    32    33   ar
    35    33    34   ar
    36    34    35   ar
    37    35    36   ar
    38    37    42   ar
    39    37    38   ar
    40    38    39   ar
    41    39    40   ar
    42    40    41   ar
    43    41    42   ar
    44     2     3    1
    45     2     4    1
    46     2     5    1
#	Name:			ZINC05223391
#	Creating user name:	trannguyen
#	Creation time:		Thu Dec  1 16:45:04 2022


#	Modifying user name:	trannguyen
#	Modification time:	Thu Dec  1 16:45:04 2022

@<TRIPOS>MOLECULE
ZINC05223391
 13 13 0 0 0
SMALL
GASTEIGER

@<TRIPOS>ATOM
      1 C           3.7831   63.9819   69.6120 C.2     1  UNL1        0.2492
      2 O           4.5738   63.0580   69.6274 O.2     1  UNL1       -0.2699
      3 N           4.1452   65.1700   69.0886 N.am    1  UNL1       -0.2646
      4 C           5.4533   65.3414   68.4385 C.3     1  UNL1        0.1549
      5 C           5.2253   65.9717   67.0554 C.3     1  UNL1        0.1275
      6 C           3.1064   66.9239   67.7514 C.3     1  UNL1        0.1275
      7 C           3.2451   66.3311   69.1577 C.3     1  UNL1        0.1549
      8 C           4.3501   67.9313   65.9345 C.3     1  UNL1        0.1673
      9 N           4.4566   67.2235   67.2272 N.4     1  UNL1        0.2830
     10 H           4.9444   67.8210   67.8946 H       1  UNL1        0.2071
     11 C           0.2262   62.7173   70.2008 C.3     1  UNL1        0.0309
     12 C           1.6107   62.9008   69.6346 C.2     1  UNL1       -0.0211
     13 C           2.4317   63.8029   70.1647 C.2     1  UNL1        0.0534
@<TRIPOS>UNITY_ATOM_ATTR
9 1
charge 1
@<TRIPOS>BOND
     1    11    12    1
     2    12    13    2
     3    13     1    1
     4     1     2    2
     5     1     3   am
     6     3     7    1
     7     3     4    1
     8     4     5    1
     9     5     9    1
    10     6     7    1
    11     6     9    1
    12     8     9    1
    13     9    10    1
#	Name:			ZINC05356577
#	Creating user name:	trannguyen
#	Creation time:		Thu Dec  1 16:45:04 2022


#	Modifying user name:	trannguyen
#	Modification time:	Thu Dec  1 16:45:04 2022

@<TRIPOS>MOLECULE
ZINC05356577
 12 12 0 0 0
SMALL
GASTEIGER

@<TRIPOS>ATOM
      1 C           3.7263   65.3366   68.4356 C.ar    1  UNL1       -0.0177
      2 C           2.9274   66.3830   68.8729 C.ar    1  UNL1        0.0165
      3 C           3.0268   67.6122   68.2501 C.ar    1  UNL1        0.0995
      4 N           3.8681   67.7968   67.2511 N.ar    1  UNL1       -0.2325
      5 C           4.6431   66.8250   66.8085 C.ar    1  UNL1        0.1380
      6 C           4.6023   65.5686   67.3875 C.ar    1  UNL1        0.0266
      7 CL          5.7310   67.1275   65.4899 Cl      1  UNL1       -0.0613
      8 C           2.4747   63.9559   70.0716 C.3     1  UNL1        0.0056
      9 C           3.6475   63.9811   69.0894 C.3     1  UNL1        0.0342
     10 C           4.9497   63.7018   69.8427 C.3     1  UNL1        0.0056
     11 C           3.4383   62.9094   68.0177 C.3     1  UNL1        0.0988
     12 CL          2.1230   61.7902   68.5356 Cl      1  UNL1       -0.1134
@<TRIPOS>BOND
     1     8     9    1
     2     9    10    1
     3     9    11    1
     4     9     1    1
     5    11    12    1
     6     1     6   ar
     7     1     2   ar
     8     2     3   ar
     9     3     4   ar
    10     4     5   ar
    11     5     6   ar
    12     5     7    1
#	Name:			ZINC05377861
#	Creating user name:	trannguyen
#	Creation time:		Thu Dec  1 16:45:04 2022


#	Modifying user name:	trannguyen
#	Modification time:	Thu Dec  1 16:45:04 2022

@<TRIPOS>MOLECULE
ZINC05377861
 17 18 0 0 0
SMALL
GASTEIGER

@<TRIPOS>ATOM
      1 C           0.5842   59.4157   75.4256 C.3     1  UNL1        0.4085
      2 N          -0.0685   60.0880   74.2995 N.ar    1  UNL1       -0.1507
      3 C           0.6646   60.4841   73.2792 C.ar    1  UNL1        0.2903
      4 C           0.0801   61.1268   72.1898 C.ar    1  UNL1        0.0729
      5 C          -1.3003   61.3414   72.1913 C.ar    1  UNL1        0.0492
      6 C          -2.0315   60.9112   73.2909 C.ar    1  UNL1        0.2047
      7 C          -1.3725   60.2786   74.3364 C.ar    1  UNL1        0.3271
      8 O          -3.3763   61.1020   73.3403 O.3     1  UNL1       -0.5008
      9 H          -3.8152   61.5297   72.6315 H       1  UNL1        0.2924
     10 C           0.9102   61.5714   71.0432 C.ar    1  UNL1        0.0062
     11 C           1.7306   60.6604   70.3804 C.ar    1  UNL1        0.0033
     12 C           2.4967   61.0753   69.3113 C.ar    1  UNL1        0.0369
     13 C           2.4599   62.4015   68.9024 C.ar    1  UNL1        0.1387
     14 C           1.6479   63.3125   69.5643 C.ar    1  UNL1        0.0369
     15 C           0.8753   62.9022   70.6304 C.ar    1  UNL1        0.0033
     16 O           3.2203   62.8088   67.8527 O.3     1  UNL1       -0.4714
     17 C           3.6554   64.1699   67.8563 C.3     1  UNL1        0.2525
@<TRIPOS>UNITY_ATOM_ATTR
2 1
charge 1
@<TRIPOS>BOND
     1     1     2    1
     2     2     7   ar
     3     2     3   ar
     4     3     4   ar
     5     4     5   ar
     6     4    10    1
     7     5     6   ar
     8     6     7   ar
     9     6     8    1
    10    10    15   ar
    11    10    11   ar
    12    11    12   ar
    13    12    13   ar
    14    13    14   ar
    15    13    16    1
    16    14    15   ar
    17    16    17    1
    18     8     9    1
#	Name:			ZINC05430849
#	Creating user name:	trannguyen
#	Creation time:		Thu Dec  1 16:45:04 2022


#	Modifying user name:	trannguyen
#	Modification time:	Thu Dec  1 16:45:04 2022

@<TRIPOS>MOLECULE
ZINC05430849
 25 29 0 0 0
SMALL
GASTEIGER

@<TRIPOS>ATOM
      1 C          -7.0141   61.6278   76.8870 C.3     1  UNL1        0.0551
      2 C          -5.5238   61.3623   77.1636 C.3     1  UNL1        0.0127
      3 C          -5.3587   59.9158   77.6114 C.3     1  UNL1        0.0445
      4 C          -3.9626   59.6375   78.1608 C.3     1  UNL1        0.0058
      5 C          -2.9013   59.8892   77.1016 C.3     1  UNL1        0.0059
      6 C          -3.1732   59.1284   75.8056 C.3     1  UNL1        0.0383
      7 C          -2.2477   59.7067   74.7497 C.ar    1  UNL1        0.0292
      8 C          -2.6501   60.5757   73.8022 C.ar    1  UNL1       -0.0037
      9 C          -1.4943   60.8645   72.9750 C.ar    1  UNL1        0.0129
     10 C          -1.3104   61.6827   71.8565 C.ar    1  UNL1        0.0012
     11 C          -0.0537   61.7032   71.3033 C.ar    1  UNL1        0.0001
     12 C           0.9884   60.9477   71.8156 C.ar    1  UNL1        0.0015
     13 C           0.8366   60.1380   72.9278 C.ar    1  UNL1        0.0169
     14 C          -0.4267   60.1026   73.5144 C.ar    1  UNL1        0.0561
     15 N          -0.9147   59.4328   74.6002 N.ar    1  UNL1       -0.3567
     16 C          -4.0490   61.1108   73.6615 C.3     1  UNL1        0.0823
     17 C          -4.8892   60.7351   74.8771 C.3     1  UNL1        0.0565
     18 C          -4.6109   59.3030   75.3251 C.3     1  UNL1        0.0551
     19 C          -5.6018   58.9559   76.4407 C.3     1  UNL1        0.0115
     20 C          -2.8537   57.6367   75.9917 C.3     1  UNL1        0.0061
     21 C          -5.1008   62.3067   78.2998 C.3     1  UNL1        0.0551
     22 N          -4.7262   61.7081   75.9663 N.4     1  UNL1        0.2424
     23 H          -0.3879   58.8427   75.1863 H       1  UNL1        0.1656
     24 H          -3.7412   61.7423   76.2289 H       1  UNL1        0.2028
     25 H          -5.0569   62.6108   75.6256 H       1  UNL1        0.2028
@<TRIPOS>UNITY_ATOM_ATTR
22 1
charge 1
@<TRIPOS>BOND
     1     1     2    1
     2     2     3    1
     3     2    21    1
     4     2    22    1
     5     3    19    1
     6     3     4    1
     7     4     5    1
     8     5     6    1
     9     6    18    1
    10     6     7    1
    11     6    20    1
    12     7    15   ar
    13     7     8   ar
    14     8     9   ar
    15     8    16    1
    16     9    14   ar
    17     9    10   ar
    18    10    11   ar
    19    11    12   ar
    20    12    13   ar
    21    13    14   ar
    22    14    15   ar
    23    16    17    1
    24    17    18    1
    25    17    22    1
    26    18    19    1
    27    15    23    1
    28    22    24    1
    29    22    25    1
#	Name:			ZINC05480945
#	Creating user name:	trannguyen
#	Creation time:		Thu Dec  1 16:45:04 2022


#	Modifying user name:	trannguyen
#	Modification time:	Thu Dec  1 16:45:04 2022

@<TRIPOS>MOLECULE
ZINC05480945
 18 19 0 0 0
SMALL
GASTEIGER

@<TRIPOS>ATOM
      1 N           2.0480   62.3792   69.4969 N.am    1  UNL1       -0.1696
      2 C           2.5684   63.5547   69.1899 C.2     1  UNL1        0.2755
      3 O           1.9046   64.5732   69.2639 O.2     1  UNL1       -0.2674
      4 C           3.9324   63.5949   68.7693 C.2     1  UNL1        0.0870
      5 C           4.6955   64.6633   68.4012 C.2     1  UNL1        0.0176
      6 S           4.3668   61.8630   68.8557 S.3     1  UNL1       -0.0589
      7 C           2.7866   61.2500   69.4201 C.2     1  UNL1        0.1382
      8 S           2.3244   59.6397   69.7724 S.2     1  UNL1       -0.0257
      9 C          -1.0152   62.1171   71.6742 C.3     1  UNL1        0.0962
     10 C           0.4214   62.1926   71.2252 C.2     1  UNL1        0.2390
     11 O           1.3153   62.1586   72.0441 O.2     1  UNL1       -0.2736
     12 N           0.7127   62.3033   69.9139 N.am    1  UNL1       -0.2255
     13 H          -0.0129   62.3309   69.2491 H       1  UNL1        0.1735
     14 C           4.0989   65.9346   68.2350 C.ar    1  UNL1        0.0301
     15 C           3.3840   66.6945   69.1545 C.ar    1  UNL1        0.0070
     16 C           2.9136   67.9106   68.7252 C.ar    1  UNL1        0.0075
     17 C           3.1532   68.3015   67.4461 C.ar    1  UNL1        0.0354
     18 S           4.0602   66.9785   66.7888 S.2     1  UNL1       -0.0864
@<TRIPOS>BOND
     1     9    10    1
     2    10    11    2
     3    10    12   am
     4    12     1    1
     5     1     7    1
     6     1     2   am
     7     2     3    2
     8     2     4    1
     9     4     5    2
    10     4     6    1
    11     5    14    1
    12    14    18   ar
    13    14    15   ar
    14    15    16   ar
    15    16    17   ar
    16    17    18   ar
    17     6     7    1
    18     7     8    2
    19    12    13    1
#	Name:			ZINC05527674
#	Creating user name:	trannguyen
#	Creation time:		Thu Dec  1 16:45:04 2022


#	Modifying user name:	trannguyen
#	Modification time:	Thu Dec  1 16:45:04 2022

@<TRIPOS>MOLECULE
ZINC05527674
 22 24 0 0 0
SMALL
GASTEIGER

@<TRIPOS>ATOM
      1 C          -6.4455   63.2520   75.1667 C.ar    1  UNL1        0.0641
      2 C          -7.7896   63.2666   75.3923 C.ar    1  UNL1        0.0478
      3 S          -8.2432   64.9036   74.8428 S.2     1  UNL1       -0.0497
      4 C          -6.6198   65.4607   74.3499 C.ar    1  UNL1        0.1642
      5 N          -6.2606   66.6143   73.8459 N.2     1  UNL1       -0.2774
      6 N          -5.8432   64.3610   74.6436 N.ar    1  UNL1       -0.3334
      7 H          -6.9348   67.3143   73.6889 H       1  UNL1        0.1888
      8 H          -4.8725   64.3743   74.4796 H       1  UNL1        0.1679
      9 C          -4.1512   59.8002   76.0967 C.ar    1  UNL1        0.0252
     10 C          -4.4653   60.7151   77.0967 C.ar    1  UNL1        0.0062
     11 C          -5.2088   61.8357   76.7986 C.ar    1  UNL1        0.0019
     12 C          -5.6482   62.0528   75.4898 C.ar    1  UNL1        0.0162
     13 C          -5.3314   61.1315   74.4877 C.ar    1  UNL1        0.0019
     14 C          -4.5873   60.0131   74.7929 C.ar    1  UNL1        0.0062
     15 C          -3.9071   57.0737   75.4273 C.3     1  UNL1        0.0742
     16 S          -3.1994   58.3685   76.4825 S.3     1  UNL1       -0.1127
     17 C          -8.6488   62.2031   75.9483 C.ar    1  UNL1        0.0075
     18 C          -9.2488   61.2700   75.0992 C.ar    1  UNL1        0.0005
     19 C         -10.0467   60.2760   75.6262 C.ar    1  UNL1        0.0000
     20 C         -10.2619   60.2080   76.9916 C.ar    1  UNL1        0.0000
     21 C          -9.6749   61.1320   77.8381 C.ar    1  UNL1        0.0000
     22 C          -8.8705   62.1283   77.3256 C.ar    1  UNL1        0.0005
@<TRIPOS>BOND
     1    15    16    1
     2    16     9    1
     3     9    14   ar
     4     9    10   ar
     5    10    11   ar
     6    11    12   ar
     7    12    13   ar
     8    12     1    1
     9    13    14   ar
    10     1     6   ar
    11     1     2   ar
    12     2     3   ar
    13     2    17    1
    14     3     4   ar
    15     4     5    2
    16     4     6   ar
    17    17    22   ar
    18    17    18   ar
    19    18    19   ar
    20    19    20   ar
    21    20    21   ar
    22    21    22   ar
    23     5     7    1
    24     6     8    1
#	Name:			ZINC05535058
#	Creating user name:	trannguyen
#	Creation time:		Thu Dec  1 16:45:04 2022


#	Modifying user name:	trannguyen
#	Modification time:	Thu Dec  1 16:45:04 2022

@<TRIPOS>MOLECULE
ZINC05535058
 21 23 0 0 0
SMALL
GASTEIGER

@<TRIPOS>ATOM
      1 N           3.7970   64.9279   68.7839 N.am    1  UNL1       -0.1930
      2 C           5.0055   64.4857   69.1842 C.2     1  UNL1        0.3095
      3 O           5.8280   65.2695   69.6086 O.2     1  UNL1       -0.2647
      4 C           2.3332   63.0599   71.0105 C.3     1  UNL1        0.0308
      5 C           1.3367   62.9108   69.8591 C.3     1  UNL1        0.1094
      6 C           0.0236   62.6995   70.5589 C.3     1  UNL1        0.0603
      7 C           0.2294   61.5960   71.6130 C.3     1  UNL1        0.1447
      8 O           0.8003   60.4302   71.0251 O.3     1  UNL1       -0.3527
      9 C           2.0450   60.6056   70.3329 C.3     1  UNL1        0.1553
     10 C           1.7932   61.5838   69.1868 C.3     1  UNL1        0.1060
     11 S           3.3782   62.2388   68.5088 S.3     1  UNL1       -0.0867
     12 C           2.8012   63.9804   68.2770 C.3     1  UNL1        0.2511
     13 O           1.5890   64.0318   69.0767 O.3     1  UNL1       -0.3329
     14 C           3.4767   66.3554   68.8615 C.3     1  UNL1        0.2136
     15 C           4.8386   66.9549   66.9520 C.3     1  UNL1        0.1072
     16 C           4.7851   67.4198   65.4948 C.3     1  UNL1        0.0612
     17 C           4.1601   68.8161   65.4323 C.3     1  UNL1        0.0122
     18 C           2.7652   68.7712   66.0621 C.3     1  UNL1        0.0612
     19 C           2.8772   68.2673   67.5028 C.3     1  UNL1        0.1072
     20 N           3.4632   66.9099   67.4920 N.4     1  UNL1        0.2920
     21 H           2.8939   66.3091   66.8959 H       1  UNL1        0.2086
@<TRIPOS>UNITY_ATOM_ATTR
20 1
charge 1
@<TRIPOS>BOND
     1     4     5    1
     2     5    10    1
     3     5    13    1
     4     5     6    1
     5     6     7    1
     6     7     8    1
     7     8     9    1
     8     9    10    1
     9    10    11    1
    10    11    12    1
    11    12    13    1
    12    12     1    1
    13     1    14    1
    14     1     2   am
    15    14    20    1
    16    15    16    1
    17    15    20    1
    18    16    17    1
    19    17    18    1
    20    18    19    1
    21    19    20    1
    22     2     3    2
    23    20    21    1
#	Name:			ZINC05547868
#	Creating user name:	trannguyen
#	Creation time:		Thu Dec  1 16:45:04 2022


#	Modifying user name:	trannguyen
#	Modification time:	Thu Dec  1 16:45:04 2022

@<TRIPOS>MOLECULE
ZINC05547868
 12 13 0 0 0
SMALL
GASTEIGER

@<TRIPOS>ATOM
      1 N           1.7139   63.9582   69.5250 N.2     1  UNL1       -0.1208
      2 C           2.7799   64.5927   69.2095 C.2     1  UNL1        0.2010
      3 C           4.2010   64.1677   69.5152 C.3     1  UNL1        0.0941
      4 C           5.1277   65.2587   68.9398 C.3     1  UNL1        0.0113
      5 C           4.2208   66.5139   68.8778 C.3     1  UNL1        0.0113
      6 C           2.8536   65.9143   68.4653 C.3     1  UNL1        0.0941
      7 H           0.8330   64.3245   69.2821 H       1  UNL1        0.4872
      8 C           2.0038   61.5049   69.6810 C.ar    1  UNL1        0.2665
      9 N           2.0122   60.6532   70.6705 N.ar    1  UNL1       -0.1193
     10 N           1.8290   61.2719   71.7823 N.ar    1  UNL1       -0.1193
     11 C           1.6939   62.5517   71.5618 C.ar    1  UNL1        0.2665
     12 N           1.8008   62.7425   70.2160 N.ar    1  UNL1       -0.0726
@<TRIPOS>UNITY_ATOM_ATTR
1 1
charge 1
@<TRIPOS>BOND
     1     8    12   ar
     2     8     9   ar
     3     9    10   ar
     4    10    11   ar
     5    11    12   ar
     6    12     1    1
     7     1     2    2
     8     2     6    1
     9     2     3    1
    10     3     4    1
    11     4     5    1
    12     5     6    1
    13     1     7    1
#	Name:			ZINC05574961
#	Creating user name:	trannguyen
#	Creation time:		Thu Dec  1 16:45:04 2022


#	Modifying user name:	trannguyen
#	Modification time:	Thu Dec  1 16:45:04 2022

@<TRIPOS>MOLECULE
ZINC05574961
 16 17 0 0 0
SMALL
GASTEIGER

@<TRIPOS>ATOM
      1 C          -1.3169   61.1394   72.4981 C.2     1  UNL1        0.0871
      2 C          -1.2117   60.5256   73.7074 C.2     1  UNL1        0.1495
      3 C          -2.3273   59.9524   74.4613 C.2     1  UNL1        0.0391
      4 C          -1.8628   59.4297   75.5973 C.2     1  UNL1        0.0455
      5 C          -0.3737   59.6707   75.6133 C.3     1  UNL1        0.2489
      6 O          -0.0585   60.3572   74.3997 O.2     1  UNL1       -0.4542
      7 C           0.0023   60.5360   76.8167 C.3     1  UNL1        0.0747
      8 C           1.5212   60.7359   76.8369 C.3     1  UNL1        0.0092
      9 C           2.2047   59.3654   76.8596 C.3     1  UNL1        0.0324
     10 C           1.7466   58.5535   75.6453 C.3     1  UNL1        0.1460
     11 O           0.3230   58.4266   75.6684 O.3     1  UNL1       -0.3217
     12 C           0.8062   62.1116   71.3412 C.1     1  UNL1       -0.0094
     13 C          -0.1502   61.6736   71.8624 C.1     1  UNL1       -0.0474
     14 C           4.0837   63.6125   69.5551 C.3     1  UNL1        0.0910
     15 C           2.8844   63.0633   70.2086 C.1     1  UNL1       -0.0769
     16 C           1.9281   62.6253   70.7299 C.1     1  UNL1       -0.0138
@<TRIPOS>BOND
     1    14    15    1
     2    15    16    3
     3    16    12    1
     4    12    13    3
     5    13     1    1
     6     1     2    2
     7     2     6    1
     8     2     3    1
     9     3     4    2
    10     4     5    1
    11     5    11    1
    12     5     6    1
    13     5     7    1
    14     7     8    1
    15     8     9    1
    16     9    10    1
    17    10    11    1
#	Name:			ZINC05580103
#	Creating user name:	trannguyen
#	Creation time:		Thu Dec  1 16:45:04 2022


#	Modifying user name:	trannguyen
#	Modification time:	Thu Dec  1 16:45:04 2022

@<TRIPOS>MOLECULE
ZINC05580103
 44 49 0 0 0
SMALL
GASTEIGER

@<TRIPOS>ATOM
      1 C         -10.7343   59.4035   76.8394 C.3     1  UNL1        0.0021
      2 C         -10.1180   60.7464   76.4427 C.3     1  UNL1        0.0245
      3 C          -9.3626   60.5905   75.1214 C.3     1  UNL1        0.1075
      4 C          -6.2631   65.9775   74.5740 C.3     1  UNL1        0.0314
      5 C          -7.4279   65.0212   74.5842 C.ar    1  UNL1       -0.0120
      6 C          -8.7144   65.4623   74.3217 C.ar    1  UNL1        0.0108
      7 C          -9.7576   64.5530   74.3399 C.ar    1  UNL1        0.0607
      8 N          -9.5559   63.2779   74.6012 N.ar    1  UNL1       -0.2324
      9 C          -8.3447   62.7986   74.8600 C.ar    1  UNL1        0.1487
     10 C          -7.2415   63.6669   74.8577 C.ar    1  UNL1        0.0931
     11 C          -5.8954   63.1299   75.1513 C.ar    1  UNL1        0.2202
     12 N          -4.8412   63.9040   75.1589 N.2     1  UNL1       -0.2532
     13 C          -5.7872   61.6792   75.4268 C.ar    1  UNL1        0.0788
     14 C          -4.5523   61.0990   75.7084 C.ar    1  UNL1        0.0073
     15 C          -4.4761   59.7469   75.9667 C.ar    1  UNL1        0.0003
     16 C          -5.6226   58.9679   75.9473 C.ar    1  UNL1        0.0015
     17 C          -6.8500   59.5306   75.6703 C.ar    1  UNL1        0.0174
     18 C          -6.9489   60.8943   75.4062 C.ar    1  UNL1        0.0667
     19 N          -8.1813   61.4569   75.1290 N.ar    1  UNL1       -0.3124
     20 C         -11.1573   65.0332   74.0548 C.3     1  UNL1        0.0521
     21 H          -4.9357   64.8661   74.9730 H       1  UNL1        0.4435
     22 H          -3.9532   63.5245   75.3504 H       1  UNL1        0.4435
     23 C         -10.2917   59.0383   78.2577 C.3     1  UNL1        0.0021
     24 C          -8.7784   59.2248   78.3837 C.3     1  UNL1        0.0245
     25 C          -8.4658   60.0111   79.6585 C.3     1  UNL1        0.1075
     26 N          -7.3736   60.9517   79.3966 N.ar    1  UNL1       -0.3124
     27 C          -6.0708   60.5082   79.5310 C.ar    1  UNL1        0.0667
     28 C          -5.8194   59.1915   79.9084 C.ar    1  UNL1        0.0174
     29 C          -4.5215   58.7469   80.0412 C.ar    1  UNL1        0.0015
     30 C          -3.4543   59.5997   79.8043 C.ar    1  UNL1        0.0003
     31 C          -3.6818   60.9070   79.4302 C.ar    1  UNL1        0.0073
     32 C          -4.9892   61.3678   79.2918 C.ar    1  UNL1        0.0788
     33 C          -5.2588   62.7672   78.8907 C.ar    1  UNL1        0.2202
     34 N          -4.2841   63.6075   78.6569 N.2     1  UNL1       -0.2532
     35 C          -6.6740   63.1774   78.7657 C.ar    1  UNL1        0.0931
     36 C          -7.6874   62.2400   79.0212 C.ar    1  UNL1        0.1487
     37 N          -8.9598   62.6060   78.9154 N.ar    1  UNL1       -0.2324
     38 C          -9.3046   63.8278   78.5642 C.ar    1  UNL1        0.0607
     39 C          -8.3559   64.7982   78.2925 C.ar    1  UNL1        0.0108
     40 C          -7.0122   64.4773   78.3922 C.ar    1  UNL1       -0.0120
     41 C          -5.9465   65.5034   78.1047 C.3     1  UNL1        0.0314
     42 C         -10.7664   64.1774   78.4562 C.3     1  UNL1        0.0521
     43 H          -3.3488   63.3135   78.7460 H       1  UNL1        0.4435
     44 H          -4.4858   64.5339   78.3917 H       1  UNL1        0.4435
@<TRIPOS>UNITY_ATOM_ATTR
12 1
charge 1
34 1
charge 1
@<TRIPOS>BOND
     1     4     5    1
     2     5    10   ar
     3     5     6   ar
     4     6     7   ar
     5     7     8   ar
     6     7    20    1
     7     8     9   ar
     8     9    19   ar
     9     9    10   ar
    10    10    11   ar
    11    11    12    2
    12    11    13   ar
    13    13    18   ar
    14    13    14   ar
    15    14    15   ar
    16    15    16   ar
    17    16    17   ar
    18    17    18   ar
    19    18    19   ar
    20    19     3    1
    21     3     2    1
    22     2     1    1
    23     1    23    1
    24    23    24    1
    25    24    25    1
    26    25    26    1
    27    26    36   ar
    28    26    27   ar
    29    27    32   ar
    30    27    28   ar
    31    28    29   ar
    32    29    30   ar
    33    30    31   ar
    34    31    32   ar
    35    32    33   ar
    36    33    34    2
    37    33    35   ar
    38    35    40   ar
    39    35    36   ar
    40    36    37   ar
    41    37    38   ar
    42    38    39   ar
    43    38    42    1
    44    39    40   ar
    45    40    41    1
    46    12    21    1
    47    12    22    1
    48    34    43    1
    49    34    44    1
#	Name:			ZINC05643406
#	Creating user name:	trannguyen
#	Creation time:		Thu Dec  1 16:45:04 2022


#	Modifying user name:	trannguyen
#	Modification time:	Thu Dec  1 16:45:04 2022

@<TRIPOS>MOLECULE
ZINC05643406
 27 29 0 0 0
SMALL
GASTEIGER

@<TRIPOS>ATOM
      1 C          -0.7513   60.5481   73.0951 C.ar    1  UNL1       -0.0129
      2 C          -2.0613   60.9325   72.8795 C.ar    1  UNL1        0.0736
      3 C          -2.9643   60.9301   73.9305 C.ar    1  UNL1        0.2929
      4 O          -2.5977   60.5615   75.1632 O.2     1  UNL1       -0.4239
      5 C          -1.3321   60.1768   75.4289 C.ar    1  UNL1        0.1529
      6 C          -0.9660   59.7988   76.7068 C.ar    1  UNL1        0.1068
      7 C           0.3497   59.4044   76.9631 C.ar    1  UNL1        0.2106
      8 O           0.7046   59.0388   78.1957 O.2     1  UNL1       -0.2857
      9 C           1.3032   59.3905   75.9258 C.ar    1  UNL1        0.0966
     10 C           0.9530   59.7607   74.6668 C.ar    1  UNL1        0.0173
     11 C          -0.3686   60.1602   74.3941 C.ar    1  UNL1        0.0319
     12 CL          2.9343   58.8981   76.2587 Cl      1  UNL1       -0.0789
     13 O          -4.2380   61.3075   73.7065 O.3     1  UNL1       -0.4795
     14 H          -4.5052   61.5676   72.8469 H       1  UNL1        0.2953
     15 C           0.2460   60.5444   71.9654 C.3     1  UNL1        0.0267
     16 C           1.6897   62.5306   71.5033 C.3     1  UNL1        0.0004
     17 C           0.2933   61.9319   71.3224 C.3     1  UNL1        0.0047
     18 C          -1.9823   59.8115   77.8196 C.3     1  UNL1        0.1389
     19 C          -2.8581   57.5590   77.6797 C.3     1  UNL1        0.1054
     20 C          -4.0194   56.7171   77.1464 C.3     1  UNL1        0.0611
     21 C          -5.3108   57.1281   77.8591 C.3     1  UNL1        0.0120
     22 C          -5.5512   58.6244   77.6402 C.3     1  UNL1        0.0552
     23 C          -4.3454   59.4110   78.1593 C.3     1  UNL1        0.0556
     24 N          -3.1396   58.9862   77.4167 N.4     1  UNL1        0.2753
     25 H          -3.3054   59.1114   76.4181 H       1  UNL1        0.2068
     26 C          -4.5724   60.9057   77.9246 C.3     1  UNL1        0.0550
     27 C          -5.7105   61.0972   76.9200 C.3     1  UNL1        0.0061
@<TRIPOS>UNITY_ATOM_ATTR
24 1
charge 1
@<TRIPOS>BOND
     1    16    17    1
     2    17    15    1
     3    15     1    1
     4     1    11   ar
     5     1     2   ar
     6     2     3   ar
     7     3     4   ar
     8     3    13    1
     9     4     5   ar
    10     5    11    1
    11     5     6   ar
    12     6     7   ar
    13     6    18    1
    14     7     8    2
    15     7     9   ar
    16     9    10   ar
    17     9    12    1
    18    10    11   ar
    19    18    24    1
    20    19    20    1
    21    19    24    1
    22    20    21    1
    23    21    22    1
    24    22    23    1
    25    23    26    1
    26    23    24    1
    27    26    27    1
    28    13    14    1
    29    24    25    1
#	Name:			ZINC05694516
#	Creating user name:	trannguyen
#	Creation time:		Thu Dec  1 16:45:04 2022


#	Modifying user name:	trannguyen
#	Modification time:	Thu Dec  1 16:45:04 2022

@<TRIPOS>MOLECULE
ZINC05694516
 28 31 0 0 0
SMALL
GASTEIGER

@<TRIPOS>ATOM
      1 C          -3.1803   59.8573   76.1965 C.ar    1  UNL1        0.0714
      2 C          -1.9297   59.6904   76.6739 C.ar    1  UNL1        0.0556
      3 S          -0.9285   60.1301   75.2624 S.2     1  UNL1       -0.0483
      4 C          -2.2539   60.5010   74.1242 C.ar    1  UNL1        0.1758
      5 N          -2.1872   60.8991   72.8677 N.2     1  UNL1       -0.2207
      6 N          -3.3621   60.2628   74.9025 N.ar    1  UNL1       -0.2996
      7 C          -6.1517   58.1665   77.7612 C.ar    1  UNL1        0.1390
      8 C          -6.5399   59.1140   78.6986 C.ar    1  UNL1        0.0400
      9 C          -5.8392   60.2993   78.8230 C.ar    1  UNL1        0.0401
     10 C          -4.7418   60.5463   78.0160 C.ar    1  UNL1        0.1402
     11 C          -4.3485   59.5976   77.0653 C.ar    1  UNL1        0.0533
     12 C          -5.0594   58.4037   76.9446 C.ar    1  UNL1        0.0414
     13 C          -7.6037   56.5832   78.7811 C.3     1  UNL1        0.2525
     14 O          -6.8462   57.0032   77.6445 O.3     1  UNL1       -0.4714
     15 O          -4.0507   61.7103   78.1432 O.3     1  UNL1       -0.4714
     16 C          -3.5999   62.0570   79.4542 C.3     1  UNL1        0.2525
     17 C          -0.9754   60.9797   72.2395 C.ar    1  UNL1        0.1025
     18 C          -0.6153   62.1336   71.5305 C.ar    1  UNL1        0.0223
     19 C           0.6239   62.1658   70.9171 C.ar    1  UNL1        0.0222
     20 C           1.4564   61.0646   71.0128 C.ar    1  UNL1        0.0990
     21 N           1.0897   59.9889   71.6826 N.ar    1  UNL1       -0.2407
     22 C          -0.0770   59.9107   72.2884 C.ar    1  UNL1        0.1180
     23 C          -4.7102   60.4454   74.3590 C.3     1  UNL1        0.1723
     24 C          -5.2625   61.7696   74.8198 C.ar    1  UNL1        0.1459
     25 C          -6.5579   62.0411   75.0597 C.ar    1  UNL1        0.0382
     26 C          -6.6235   63.3913   75.4739 C.ar    1  UNL1        0.0435
     27 C          -5.3650   63.8657   75.4576 C.ar    1  UNL1        0.1792
     28 O          -4.5452   62.8799   75.0576 O.2     1  UNL1       -0.4527
@<TRIPOS>BOND
     1    13    14    1
     2    14     7    1
     3     7    12   ar
     4     7     8   ar
     5     8     9   ar
     6     9    10   ar
     7    10    11   ar
     8    10    15    1
     9    11    12   ar
    10    11     1    1
    11     1     6   ar
    12     1     2   ar
    13     2     3   ar
    14     3     4   ar
    15     4     5    2
    16     4     6   ar
    17     5    17    1
    18    17    22   ar
    19    17    18   ar
    20    18    19   ar
    21    19    20   ar
    22    20    21   ar
    23    21    22   ar
    24     6    23    1
    25    23    24    1
    26    24    28   ar
    27    24    25   ar
    28    25    26   ar
    29    26    27   ar
    30    27    28   ar
    31    15    16    1
#	Name:			ZINC05780483
#	Creating user name:	trannguyen
#	Creation time:		Thu Dec  1 16:45:04 2022


#	Modifying user name:	trannguyen
#	Modification time:	Thu Dec  1 16:45:04 2022

@<TRIPOS>MOLECULE
ZINC05780483
 26 28 0 0 0
SMALL
GASTEIGER

@<TRIPOS>ATOM
      1 N           1.8538   61.4609   70.0544 N.am    1  UNL1       -0.2548
      2 C           2.6129   62.5739   70.0925 C.2     1  UNL1        0.2408
      3 O           2.4350   63.3997   70.9629 O.2     1  UNL1       -0.2736
      4 C           0.0451   60.0886   72.9483 C.ar    1  UNL1        0.0014
      5 C          -1.1050   60.8560   72.9281 C.ar    1  UNL1        0.0024
      6 C          -1.2768   61.8246   71.9564 C.ar    1  UNL1        0.0309
      7 C          -0.2976   62.0284   71.0012 C.ar    1  UNL1        0.1537
      8 C           0.8596   61.2578   71.0197 C.ar    1  UNL1        0.0814
      9 C           1.0247   60.2828   71.9938 C.ar    1  UNL1        0.0172
     10 F          -0.4654   62.9744   70.0513 F       1  UNL1       -0.2029
     11 C           2.0686   60.4634   69.0032 C.3     1  UNL1        0.1144
     12 C           3.3069   59.6291   69.3371 C.3     1  UNL1        0.1272
     13 C           2.9028   58.4314   70.0913 C.1     1  UNL1        0.0750
     14 N           2.5910   57.5070   70.6733 N.1     1  UNL1       -0.1958
     15 C           3.6826   62.7923   69.0538 C.3     1  UNL1        0.1494
     16 S           4.8942   63.9840   69.6768 S.3     1  UNL1       -0.0786
     17 C           4.5594   65.3464   68.6109 C.ar    1  UNL1        0.1368
     18 N           5.1480   65.6742   67.4822 N.ar    1  UNL1       -0.2320
     19 C           4.7838   66.7582   66.7629 C.ar    1  UNL1        0.0893
     20 C           5.3297   67.2190   65.5426 C.ar    1  UNL1        0.0310
     21 C           4.8390   68.3480   64.9375 C.ar    1  UNL1        0.0592
     22 C           3.7962   69.0745   65.4959 C.ar    1  UNL1        0.0120
     23 C           3.2394   68.6516   66.6893 C.ar    1  UNL1        0.0089
     24 C           3.7244   67.5231   67.3013 C.ar    1  UNL1        0.0490
     25 S           3.3336   66.6348   68.7895 S.2     1  UNL1       -0.0603
     26 CL          5.5370   68.8797   63.4396 Cl      1  UNL1       -0.0822
@<TRIPOS>BOND
     1     4     9   ar
     2     4     5   ar
     3     5     6   ar
     4     6     7   ar
     5     7     8   ar
     6     7    10    1
     7     8     9   ar
     8     8     1    1
     9     1    11    1
    10     1     2   am
    11    11    12    1
    12    12    13    1
    13    13    14    3
    14     2     3    2
    15     2    15    1
    16    15    16    1
    17    16    17    1
    18    17    25   ar
    19    17    18   ar
    20    18    19   ar
    21    19    24   ar
    22    19    20   ar
    23    20    21   ar
    24    21    22   ar
    25    21    26    1
    26    22    23   ar
    27    23    24   ar
    28    24    25   ar
#	Name:			ZINC05851615
#	Creating user name:	trannguyen
#	Creation time:		Thu Dec  1 16:45:04 2022


#	Modifying user name:	trannguyen
#	Modification time:	Thu Dec  1 16:45:04 2022

@<TRIPOS>MOLECULE
ZINC05851615
 14 15 0 0 0
SMALL
GASTEIGER

@<TRIPOS>ATOM
      1 C           1.7343   63.0904   71.2797 C.3     1  UNL1        0.0960
      2 C           3.0191   62.2678   70.9459 C.3     1  UNL1        0.1901
      3 N           2.5729   61.1223   70.0792 N.pl3   1  UNL1       -0.1040
      4 C           1.9204   61.7051   68.8557 C.3     1  UNL1        0.1901
      5 S           0.7656   62.8689   69.7178 S.3     1  UNL1       -0.1122
      6 C           2.9875   62.6084   68.1719 C.3     1  UNL1        0.0960
      7 S           3.9057   63.2389   69.6414 S.3     1  UNL1       -0.1122
      8 N           2.7403   59.7595   70.3580 N.2     1  UNL1       -0.1450
      9 C           1.8768   59.1381   71.1044 C.2     1  UNL1        0.1250
     10 N           1.9805   57.7658   71.2909 N.pl3   1  UNL1       -0.3292
     11 S           0.5745   60.0367   71.8797 S.3     1  UNL1       -0.6691
     12 H           3.5121   59.2726   69.9884 H       1  UNL1        0.4835
     13 H           2.7081   57.2638   70.8578 H       1  UNL1        0.1455
     14 H           1.3262   57.2951   71.8563 H       1  UNL1        0.1455
@<TRIPOS>UNITY_ATOM_ATTR
8 1
charge 1
11 1
charge -1
@<TRIPOS>BOND
     1     1     5    1
     2     1     2    1
     3     2     7    1
     4     2     3    1
     5     3     4    1
     6     3     8    1
     7     4     5    1
     8     4     6    1
     9     6     7    1
    10     8     9    2
    11     9    10    1
    12     9    11    1
    13     8    12    1
    14    10    13    1
    15    10    14    1
#	Name:			ZINC05853223
#	Creating user name:	trannguyen
#	Creation time:		Thu Dec  1 16:45:04 2022


#	Modifying user name:	trannguyen
#	Modification time:	Thu Dec  1 16:45:04 2022

@<TRIPOS>MOLECULE
ZINC05853223
 8 8 0 0 0
SMALL
GASTEIGER

@<TRIPOS>ATOM
      1 N           4.3315   68.8251   62.8653 N.ar    1  UNL1       -0.1169
      2 C           3.0520   68.5270   62.5598 C.ar    1  UNL1        0.3156
      3 C           2.9504   68.4563   61.2210 C.ar    1  UNL1        0.1542
      4 N           4.1941   68.7170   60.7095 N.ar    1  UNL1       -0.2873
      5 C           5.0196   68.9456   61.7526 C.ar    1  UNL1        0.3828
      6 H           4.4405   68.7345   59.7565 H       1  UNL1        0.1720
      7 C           4.0364   68.8411   65.1838 C.2     1  UNL1        0.0825
      8 C           4.8328   68.9832   64.1348 C.2     1  UNL1        0.2971
@<TRIPOS>UNITY_ATOM_ATTR
1 1
charge 1
@<TRIPOS>BOND
     1     7     8    2
     2     8     1    1
     3     1     5   ar
     4     1     2   ar
     5     2     3   ar
     6     3     4   ar
     7     4     5   ar
     8     4     6    1
#	Name:			ZINC06196579
#	Creating user name:	trannguyen
#	Creation time:		Thu Dec  1 16:45:04 2022


#	Modifying user name:	trannguyen
#	Modification time:	Thu Dec  1 16:45:04 2022

@<TRIPOS>MOLECULE
ZINC06196579
 38 40 0 0 0
SMALL
GASTEIGER

@<TRIPOS>ATOM
      1 N          -0.0365   59.8970   73.7966 N.am    1  UNL1       -0.2868
      2 C           0.9807   59.4906   74.5818 C.2     1  UNL1        0.1349
      3 S           1.4334   60.4207   75.9460 S.2     1  UNL1       -0.0186
      4 N           1.6415   58.3520   74.2931 N.am    1  UNL1       -0.3157
      5 H           1.4176   57.8458   73.4789 H       1  UNL1        0.1485
      6 C           2.6930   57.8675   75.1910 C.3     1  UNL1        0.0945
      7 C           2.1553   56.7020   76.0238 C.3     1  UNL1        0.0821
      8 C           2.4060   56.9774   77.5078 C.3     1  UNL1        0.1076
      9 C           3.6752   58.7312   78.5923 C.3     1  UNL1        0.1674
     10 C           4.7019   56.5801   78.1662 C.3     1  UNL1        0.1674
     11 N           3.7443   57.5859   77.6604 N.4     1  UNL1        0.2850
     12 H           4.0628   57.9183   76.7501 H       1  UNL1        0.2072
     13 C          -0.1272   59.4254   72.4126 C.3     1  UNL1        0.1238
     14 C           2.4347   64.2810   69.5338 C.ar    1  UNL1        0.1386
     15 C           3.4779   63.5714   68.9431 C.ar    1  UNL1        0.0384
     16 C           3.6071   62.2153   69.1449 C.ar    1  UNL1        0.0202
     17 C           2.6897   61.5412   69.9445 C.ar    1  UNL1        0.0590
     18 C           1.6341   62.2542   70.5430 C.ar    1  UNL1        0.0186
     19 C           1.5139   63.6317   70.3309 C.ar    1  UNL1        0.0383
     20 C           0.6762   61.5326   71.3828 C.ar    1  UNL1        0.0036
     21 C           0.8414   60.1977   71.5543 C.ar    1  UNL1        0.0536
     22 C           1.9203   59.5299   70.9365 C.ar    1  UNL1        0.2552
     23 O           2.0534   58.3305   71.1082 O.2     1  UNL1       -0.2675
     24 N           2.8018   60.1825   70.1589 N.ar    1  UNL1       -0.3212
     25 H           3.5380   59.6838   69.7363 H       1  UNL1        0.1689
     26 O           2.3228   65.6195   69.3235 O.3     1  UNL1       -0.4755
     27 C           3.1567   67.7744   68.6153 C.3     1  UNL1        0.0512
     28 C           3.4983   66.3093   68.8937 C.3     1  UNL1        0.2055
     29 C          -1.0516   60.8105   74.3272 C.3     1  UNL1        0.0988
     30 C          -2.4359   60.1756   74.1801 C.3     1  UNL1        0.0823
     31 C          -3.0824   60.0367   75.5597 C.3     1  UNL1        0.1073
     32 C          -5.4225   60.5144   75.1562 C.3     1  UNL1        0.1380
     33 C          -6.7972   59.8700   74.9590 C.3     1  UNL1        0.2029
     34 O          -7.1241   59.0932   76.1144 O.3     1  UNL1       -0.3412
     35 C          -6.1769   58.0606   76.4008 C.3     1  UNL1        0.2029
     36 C          -4.7960   58.6867   76.6126 C.3     1  UNL1        0.1380
     37 N          -4.4294   59.4473   75.3992 N.4     1  UNL1        0.2798
     38 H          -4.4197   58.8139   74.5998 H       1  UNL1        0.2069
@<TRIPOS>UNITY_ATOM_ATTR
11 1
charge 1
37 1
charge 1
@<TRIPOS>BOND
     1    27    28    1
     2    28    26    1
     3    26    14    1
     4    14    19   ar
     5    14    15   ar
     6    15    16   ar
     7    16    17   ar
     8    17    24   ar
     9    17    18   ar
    10    18    19   ar
    11    18    20   ar
    12    20    21   ar
    13    21    22   ar
    14    21    13    1
    15    22    23    2
    16    22    24   ar
    17    13     1    1
    18     1    29    1
    19     1     2    1
    20    29    30    1
    21    30    31    1
    22    31    37    1
    23    32    33    1
    24    32    37    1
    25    33    34    1
    26    34    35    1
    27    35    36    1
    28    36    37    1
    29     2     3    2
    30     2     4    1
    31     4     6    1
    32     6     7    1
    33     7     8    1
    34     8    11    1
    35     9    11    1
    36    10    11    1
    37    24    25    1
    38     4     5    1
    39    37    38    1
    40    11    12    1
#	Name:			ZINC06372382
#	Creating user name:	trannguyen
#	Creation time:		Thu Dec  1 16:45:04 2022


#	Modifying user name:	trannguyen
#	Modification time:	Thu Dec  1 16:45:04 2022

@<TRIPOS>MOLECULE
ZINC06372382
 13 14 0 0 0
SMALL
GASTEIGER

@<TRIPOS>ATOM
      1 C           4.4105   68.3053   64.9938 C.ar    1  UNL1        0.1391
      2 C           3.6360   68.5883   66.0490 C.ar    1  UNL1        0.3118
      3 N           3.8938   67.6865   67.0355 N.ar    1  UNL1       -0.1237
      4 C           3.3757   67.5622   68.2607 C.ar    1  UNL1        0.2966
      5 C           3.7826   66.5710   69.1011 C.ar    1  UNL1        0.0764
      6 C           4.7609   65.6704   68.6845 C.ar    1  UNL1        0.0142
      7 C           5.2853   65.8051   67.4159 C.ar    1  UNL1        0.0898
      8 C           4.8290   66.8396   66.5986 C.ar    1  UNL1        0.2987
      9 N           5.1705   67.2081   65.3161 N.ar    1  UNL1       -0.2965
     10 H           5.8350   66.7674   64.7387 H       1  UNL1        0.1715
     11 C           4.4429   69.0565   63.6878 C.3     1  UNL1        0.1919
     12 C           2.9050   68.2889   62.0172 C.3     1  UNL1        0.1747
     13 O           4.1974   68.1500   62.6107 O.3     1  UNL1       -0.3446
@<TRIPOS>UNITY_ATOM_ATTR
3 1
charge 1
@<TRIPOS>BOND
     1    12    13    1
     2    13    11    1
     3    11     1    1
     4     1     9   ar
     5     1     2   ar
     6     2     3   ar
     7     3     8   ar
     8     3     4   ar
     9     4     5   ar
    10     5     6   ar
    11     6     7   ar
    12     7     8   ar
    13     8     9   ar
    14     9    10    1
#	Name:			ZINC06426056
#	Creating user name:	trannguyen
#	Creation time:		Thu Dec  1 16:45:04 2022


#	Modifying user name:	trannguyen
#	Modification time:	Thu Dec  1 16:45:04 2022

@<TRIPOS>MOLECULE
ZINC06426056
 19 20 0 0 0
SMALL
GASTEIGER

@<TRIPOS>ATOM
      1 C           2.4692   63.2519   69.9693 C.ar    1  UNL1        0.2339
      2 N           2.3807   64.5687   69.9527 N.ar    1  UNL1       -0.2084
      3 C           3.0057   65.3225   69.0235 C.ar    1  UNL1        0.0908
      4 C           2.9947   66.7309   68.8925 C.ar    1  UNL1        0.0206
      5 C           3.6889   67.3462   67.8835 C.ar    1  UNL1        0.0130
      6 C           4.4234   66.6162   66.9591 C.ar    1  UNL1        0.0583
      7 C           4.4564   65.2358   67.0580 C.ar    1  UNL1        0.0195
      8 C           3.7642   64.6119   68.0652 C.ar    1  UNL1        0.0521
      9 S           3.5257   62.9239   68.5656 S.2     1  UNL1       -0.0324
     10 CL          5.2919   67.4258   65.6927 Cl      1  UNL1       -0.0822
     11 C           0.5943   62.2535   70.8800 C.cat   1  UNL1        0.3535
     12 N           1.9057   62.3756   70.8287 N.pl3   1  UNL1       -0.2242
     13 N          -0.2009   63.1071   70.1642 N.pl3   1  UNL1       -0.2912
     14 H           2.4744   61.8280   71.4168 H       1  UNL1        0.2668
     15 H          -1.1805   63.0160   70.2025 H       1  UNL1        0.2546
     16 H           0.2066   63.8123   69.6110 H       1  UNL1        0.2546
     17 C           0.7218   59.9969   71.8371 C.3     1  UNL1        0.2205
     18 N           0.0279   61.2733   71.6492 N.pl3   1  UNL1       -0.2302
     19 C          -1.2725   61.5005   72.2845 C.3     1  UNL1        0.2205
@<TRIPOS>UNITY_ATOM_ATTR
12 1
charge 1
@<TRIPOS>BOND
     1    17    18    1
     2    18    19    1
     3    18    11    1
     4    11    12    2
     5    11    13    1
     6    12     1    1
     7     1     9   ar
     8     1     2   ar
     9     2     3   ar
    10     3     8   ar
    11     3     4   ar
    12     4     5   ar
    13     5     6   ar
    14     6     7   ar
    15     6    10    1
    16     7     8   ar
    17     8     9   ar
    18    12    14    1
    19    13    15    1
    20    13    16    1
#	Name:			ZINC06491571
#	Creating user name:	trannguyen
#	Creation time:		Thu Dec  1 16:45:04 2022


#	Modifying user name:	trannguyen
#	Modification time:	Thu Dec  1 16:45:04 2022

@<TRIPOS>MOLECULE
ZINC06491571
 11 11 0 0 0
SMALL
GASTEIGER

@<TRIPOS>ATOM
      1 C           2.8473   61.0103   68.8457 C.3     1  UNL1        0.0662
      2 C           2.0944   62.3040   69.1622 C.3     1  UNL1        0.0819
      3 C           3.0704   63.4504   69.2261 C.2     1  UNL1        0.0225
      4 C           4.3797   63.3187   69.4006 C.2     1  UNL1       -0.0203
      5 C           4.9638   64.7138   69.4007 C.3     1  UNL1        0.0519
      6 C           3.7828   65.6370   69.1989 C.2     1  UNL1       -0.0216
      7 C           2.7053   64.8638   69.1037 C.2     1  UNL1       -0.0034
      8 N           1.4119   62.1694   70.4560 N.4     1  UNL1        0.3095
      9 C           0.0684   62.7565   70.3644 C.3     1  UNL1        0.1711
     10 C           1.3018   60.7470   70.8059 C.3     1  UNL1        0.1711
     11 C           2.1830   62.8701   71.4916 C.3     1  UNL1        0.1711
@<TRIPOS>UNITY_ATOM_ATTR
8 1
charge 1
@<TRIPOS>BOND
     1     1     2    1
     2     2     3    1
     3     2     8    1
     4     3     7    1
     5     3     4    2
     6     4     5    1
     7     5     6    1
     8     6     7    2
     9     8     9    1
    10     8    10    1
    11     8    11    1
#	Name:			ZINC06812513
#	Creating user name:	trannguyen
#	Creation time:		Thu Dec  1 16:45:04 2022


#	Modifying user name:	trannguyen
#	Modification time:	Thu Dec  1 16:45:04 2022

@<TRIPOS>MOLECULE
ZINC06812513
 21 24 0 0 0
SMALL
GASTEIGER

@<TRIPOS>ATOM
      1 C          -1.3949   60.2657   74.2429 C.ar    1  UNL1        0.1229
      2 C          -0.6180   59.9968   75.3405 C.ar    1  UNL1        0.0593
      3 S           0.9889   59.8224   74.5758 S.2     1  UNL1       -0.0601
      4 C           0.4705   60.1302   72.8931 C.ar    1  UNL1        0.1725
      5 N          -0.8299   60.3278   73.0485 N.ar    1  UNL1       -0.2294
      6 C           1.2774   60.1566   71.6578 C.ar    1  UNL1        0.2273
      7 C           1.8160   59.0781   71.0382 C.ar    1  UNL1       -0.0704
      8 N           2.4824   59.5277   69.9314 N.ar    1  UNL1       -0.6012
      9 C           2.3474   60.8996   69.8943 C.ar    1  UNL1        0.1272
     10 N           1.6154   61.2761   70.9441 N.ar    1  UNL1       -0.1650
     11 C           1.3276   62.5616   71.1540 C.ar    1  UNL1        0.2938
     12 C           1.7710   63.5319   70.3058 C.ar    1  UNL1        0.0762
     13 C           2.5380   63.1809   69.1979 C.ar    1  UNL1        0.0104
     14 C           2.8287   61.8479   68.9916 C.ar    1  UNL1        0.0449
     15 C           1.6990   57.6438   71.4856 C.3     1  UNL1        0.0111
     16 C          -5.7969   62.5867   74.9059 C.3     1  UNL1        0.0725
     17 C          -4.7768   61.4999   74.6832 C.ar    1  UNL1        0.1234
     18 C          -5.0451   60.1874   74.5463 C.ar    1  UNL1        0.0361
     19 C          -3.8115   59.5315   74.3541 C.ar    1  UNL1        0.0418
     20 C          -2.8481   60.4899   74.3938 C.ar    1  UNL1        0.1629
     21 O          -3.4476   61.6791   74.5940 O.2     1  UNL1       -0.4562
@<TRIPOS>UNITY_ATOM_ATTR
8 1
charge -1
10 1
charge 1
@<TRIPOS>BOND
     1    16    17    1
     2    17    21   ar
     3    17    18   ar
     4    18    19   ar
     5    19    20   ar
     6    20    21   ar
     7    20     1    1
     8     1     5   ar
     9     1     2   ar
    10     2     3   ar
    11     3     4   ar
    12     4     5   ar
    13     4     6    1
    14     6    10   ar
    15     6     7   ar
    16     7     8   ar
    17     7    15    1
    18     8     9   ar
    19     9    14   ar
    20     9    10   ar
    21    10    11   ar
    22    11    12   ar
    23    12    13   ar
    24    13    14   ar
#	Name:			ZINC07045095
#	Creating user name:	trannguyen
#	Creation time:		Thu Dec  1 16:45:04 2022


#	Modifying user name:	trannguyen
#	Modification time:	Thu Dec  1 16:45:04 2022

@<TRIPOS>MOLECULE
ZINC07045095
 28 31 0 0 0
SMALL
GASTEIGER

@<TRIPOS>ATOM
      1 S           3.8845   66.4266   69.1373 S.3     1  UNL1       -0.0692
      2 C           3.7049   67.4775   67.7344 C.ar    1  UNL1        0.1938
      3 N           2.9771   68.5700   67.6668 N.ar    1  UNL1       -0.1221
      4 N           3.0723   69.0917   66.4962 N.ar    1  UNL1       -0.1282
      5 C           3.8662   68.3649   65.7449 C.ar    1  UNL1        0.1670
      6 N           4.3004   67.3119   66.5167 N.ar    1  UNL1       -0.2862
      7 C           4.2302   68.6310   64.3369 C.ar    1  UNL1        0.0360
      8 C           5.5332   69.0091   64.0092 C.ar    1  UNL1        0.0030
      9 C           5.8679   69.2499   62.6927 C.ar    1  UNL1        0.0001
     10 C           4.9120   69.1294   61.6996 C.ar    1  UNL1        0.0000
     11 C           3.6171   68.7605   62.0183 C.ar    1  UNL1        0.0001
     12 C           3.2709   68.5108   63.3302 C.ar    1  UNL1        0.0030
     13 C           5.2094   66.2356   66.1148 C.3     1  UNL1        0.1359
     14 C           4.6648   64.9138   66.5919 C.2     1  UNL1       -0.0017
     15 C           3.8872   64.2056   65.8110 C.2     1  UNL1       -0.0029
     16 C           2.1730   65.8723   69.3361 C.3     1  UNL1        0.1109
     17 C           3.0462   59.4533   69.7403 C.3     1  UNL1        0.0505
     18 C           2.0506   60.3829   70.3851 C.ar    1  UNL1        0.0459
     19 C           1.1213   59.8844   71.2310 C.ar    1  UNL1        0.0133
     20 C           0.1934   60.7397   71.8416 C.ar    1  UNL1        0.0043
     21 C           0.2351   62.0758   71.5765 C.ar    1  UNL1        0.0375
     22 C           1.2095   62.5758   70.6934 C.ar    1  UNL1        0.1493
     23 N           2.1007   61.7164   70.1136 N.ar    1  UNL1       -0.2629
     24 C           3.0380   62.1909   69.2654 C.ar    1  UNL1        0.2668
     25 O           3.8400   61.4342   68.7413 O.2     1  UNL1       -0.2666
     26 C           3.0761   63.5641   68.9969 C.ar    1  UNL1        0.0767
     27 C           2.1533   64.3903   69.6084 C.ar    1  UNL1        0.0767
     28 N           1.2518   63.8812   70.4333 N.ar    1  UNL1       -0.2311
@<TRIPOS>BOND
     1    17    18    1
     2    18    23   ar
     3    18    19   ar
     4    19    20   ar
     5    20    21   ar
     6    21    22   ar
     7    22    28   ar
     8    22    23   ar
     9    23    24   ar
    10    24    25    2
    11    24    26   ar
    12    26    27   ar
    13    27    28   ar
    14    27    16    1
    15    16     1    1
    16     1     2    1
    17     2     6   ar
    18     2     3   ar
    19     3     4   ar
    20     4     5   ar
    21     5     6   ar
    22     5     7    1
    23     6    13    1
    24    13    14    1
    25    14    15    2
    26     7    12   ar
    27     7     8   ar
    28     8     9   ar
    29     9    10   ar
    30    10    11   ar
    31    11    12   ar
#	Name:			ZINC07048797
#	Creating user name:	trannguyen
#	Creation time:		Thu Dec  1 16:45:04 2022


#	Modifying user name:	trannguyen
#	Modification time:	Thu Dec  1 16:45:04 2022

@<TRIPOS>MOLECULE
ZINC07048797
 22 25 0 0 0
SMALL
GASTEIGER

@<TRIPOS>ATOM
      1 C           2.5654   65.8089   69.3975 C.3     1  UNL1        0.1541
      2 C           4.7835   65.9067   68.4264 C.3     1  UNL1        0.1108
      3 C           5.4999   65.8408   67.0772 C.3     1  UNL1        0.0871
      4 C           5.0813   67.0043   66.2154 C.ar    1  UNL1       -0.0148
      5 C           5.8614   67.3265   65.1151 C.ar    1  UNL1       -0.0042
      6 C           5.5113   68.3818   64.2971 C.ar    1  UNL1       -0.0003
      7 C           4.3771   69.1215   64.5763 C.ar    1  UNL1       -0.0001
      8 C           3.6010   68.8027   65.6720 C.ar    1  UNL1        0.0011
      9 C           3.9521   67.7431   66.4961 C.ar    1  UNL1        0.0289
     10 C           3.0757   67.4363   67.6821 C.3     1  UNL1        0.1329
     11 N           3.3395   66.0698   68.1629 N.4     1  UNL1        0.2841
     12 H           3.0522   65.4013   67.4481 H       1  UNL1        0.2075
     13 C           0.1561   61.5767   72.1231 C.3     1  UNL1        0.0342
     14 C           1.1581   61.3239   71.0262 C.ar    1  UNL1        0.0126
     15 C           1.4889   60.0513   70.6776 C.ar    1  UNL1        0.0003
     16 C           2.4241   59.8313   69.6529 C.ar    1  UNL1        0.0188
     17 C           2.9936   60.8753   69.0152 C.ar    1  UNL1        0.0815
     18 N           2.6708   62.1572   69.3549 N.ar    1  UNL1       -0.2878
     19 C           1.7576   62.4035   70.3471 C.ar    1  UNL1        0.1436
     20 N           1.6266   63.7172   70.4674 N.ar    1  UNL1       -0.2253
     21 C           2.4225   64.3199   69.5809 C.ar    1  UNL1        0.1330
     22 C           3.0871   63.3726   68.8835 C.ar    1  UNL1        0.1020
@<TRIPOS>UNITY_ATOM_ATTR
11 1
charge 1
@<TRIPOS>BOND
     1    13    14    1
     2    14    19   ar
     3    14    15   ar
     4    15    16   ar
     5    16    17   ar
     6    17    18   ar
     7    18    22   ar
     8    18    19   ar
     9    19    20   ar
    10    20    21   ar
    11    21    22   ar
    12    21     1    1
    13     1    11    1
    14     2     3    1
    15     2    11    1
    16     3     4    1
    17     4     9   ar
    18     4     5   ar
    19     5     6   ar
    20     6     7   ar
    21     7     8   ar
    22     8     9   ar
    23     9    10    1
    24    10    11    1
    25    11    12    1
#	Name:			ZINC07161490
#	Creating user name:	trannguyen
#	Creation time:		Thu Dec  1 16:45:04 2022


#	Modifying user name:	trannguyen
#	Modification time:	Thu Dec  1 16:45:04 2022

@<TRIPOS>MOLECULE
ZINC07161490
 27 29 0 0 0
SMALL
GASTEIGER

@<TRIPOS>ATOM
      1 C          -3.9060   60.9779   74.7716 C.ar    1  UNL1        0.1725
      2 N          -3.1860   61.3760   73.7409 N.ar    1  UNL1       -0.2269
      3 C          -1.9761   60.8977   73.5273 C.ar    1  UNL1        0.0787
      4 C          -1.4813   59.9807   74.3945 C.ar    1  UNL1        0.0537
      5 S          -2.8429   59.8421   75.5433 S.2     1  UNL1       -0.0506
      6 C          -7.6391   61.0555   75.1950 C.3     1  UNL1        0.0956
      7 C          -6.2523   60.6293   74.7877 C.2     1  UNL1        0.2351
      8 O          -6.0958   59.6211   74.1318 O.2     1  UNL1       -0.2741
      9 N          -5.1863   61.3714   75.1476 N.am    1  UNL1       -0.2140
     10 C          -5.3677   62.5402   75.9011 C.ar    1  UNL1        0.0937
     11 C          -5.5371   63.7600   75.2626 C.ar    1  UNL1        0.0184
     12 C          -5.7156   64.9103   76.0073 C.ar    1  UNL1        0.0015
     13 C          -5.7266   64.8492   77.3887 C.ar    1  UNL1        0.0032
     14 C          -5.5589   63.6371   78.0319 C.ar    1  UNL1        0.0382
     15 C          -5.3841   62.4784   77.2925 C.ar    1  UNL1        0.1526
     16 O          -5.2243   61.2848   77.9236 O.3     1  UNL1       -0.4702
     17 C          -4.1725   61.1960   78.8869 C.3     1  UNL1        0.2525
     18 C          -1.1617   61.3602   72.3465 C.3     1  UNL1        0.1083
     19 S           0.3393   60.3501   72.2144 S.3     1  UNL1       -0.1071
     20 C           1.2977   61.1698   70.9838 C.ar    1  UNL1        0.0280
     21 C           1.9890   60.4292   70.0328 C.ar    1  UNL1        0.0086
     22 C           2.7356   61.0731   69.0655 C.ar    1  UNL1        0.0325
     23 C           2.8053   62.4555   69.0488 C.ar    1  UNL1        0.1674
     24 C           2.1213   63.1976   69.9998 C.ar    1  UNL1        0.1679
     25 C           1.3679   62.5569   70.9667 C.ar    1  UNL1        0.0381
     26 F           2.1907   64.5467   69.9818 F       1  UNL1       -0.2018
     27 F           3.5403   63.0826   68.1045 F       1  UNL1       -0.2018
@<TRIPOS>BOND
     1     6     7    1
     2     7     8    2
     3     7     9   am
     4     9    10    1
     5     9     1    1
     6    10    15   ar
     7    10    11   ar
     8    11    12   ar
     9    12    13   ar
    10    13    14   ar
    11    14    15   ar
    12    15    16    1
    13    16    17    1
    14     1     5   ar
    15     1     2   ar
    16     2     3   ar
    17     3     4   ar
    18     3    18    1
    19     4     5   ar
    20    18    19    1
    21    19    20    1
    22    20    25   ar
    23    20    21   ar
    24    21    22   ar
    25    22    23   ar
    26    23    24   ar
    27    23    27    1
    28    24    25   ar
    29    24    26    1
#	Name:			ZINC07991076
#	Creating user name:	trannguyen
#	Creation time:		Thu Dec  1 16:45:04 2022


#	Modifying user name:	trannguyen
#	Modification time:	Thu Dec  1 16:45:04 2022

@<TRIPOS>MOLECULE
ZINC07991076
 16 16 0 0 0
SMALL
GASTEIGER

@<TRIPOS>ATOM
      1 C           2.8668   63.2957   69.4753 C.3     1  UNL1        0.2402
      2 O           3.9136   62.9872   70.3978 O.3     1  UNL1       -0.3722
      3 H           3.8320   63.5540   71.1808 H       1  UNL1        0.2111
      4 C           5.4775   64.9241   69.1110 C.3     1  UNL1        0.1317
      5 N           4.1195   65.4344   68.9064 N.ar    1  UNL1       -0.3096
      6 C           3.7777   66.7045   68.5274 C.ar    1  UNL1        0.0978
      7 C           2.4330   66.7437   68.4647 C.ar    1  UNL1        0.1189
      8 N           1.9666   65.5307   68.7962 N.ar    1  UNL1       -0.2266
      9 C           2.9711   64.7412   69.0621 C.ar    1  UNL1        0.1543
     10 C           2.9956   62.4017   68.2402 C.3     1  UNL1        0.4270
     11 F           3.2663   63.1924   67.1183 F       1  UNL1       -0.1671
     12 F           4.0395   61.4901   68.4312 F       1  UNL1       -0.1671
     13 F           1.7986   61.7051   68.0420 F       1  UNL1       -0.1671
     14 C           1.5114   63.0524   70.1419 C.3     1  UNL1        0.1481
     15 C           1.7198   62.6128   71.5312 C.1     1  UNL1        0.0764
     16 N           1.8806   62.2737   72.6034 N.1     1  UNL1       -0.1958
@<TRIPOS>BOND
     1     4     5    1
     2     5     9   ar
     3     5     6   ar
     4     6     7   ar
     5     7     8   ar
     6     8     9   ar
     7     9     1    1
     8     1    14    1
     9     1    10    1
    10     1     2    1
    11    14    15    1
    12    15    16    3
    13    10    11    1
    14    10    12    1
    15    10    13    1
    16     2     3    1
#	Name:			ZINC08034249
#	Creating user name:	trannguyen
#	Creation time:		Thu Dec  1 16:45:04 2022


#	Modifying user name:	trannguyen
#	Modification time:	Thu Dec  1 16:45:04 2022

@<TRIPOS>MOLECULE
ZINC08034249
 39 43 0 0 0
SMALL
GASTEIGER

@<TRIPOS>ATOM
      1 C           2.7937   57.0807   78.8086 C.ar    1  UNL1       -0.0244
      2 C           2.6269   56.1371   79.8008 C.ar    1  UNL1        0.0250
      3 C           1.3531   55.7107   80.1362 C.ar    1  UNL1        0.1395
      4 C           0.2588   56.2360   79.4755 C.ar    1  UNL1        0.0250
      5 C           0.4269   57.1869   78.4780 C.ar    1  UNL1       -0.0240
      6 C           1.6948   57.6068   78.1420 C.ar    1  UNL1       -0.0265
      7 C           1.9520   58.6241   77.0610 C.3     1  UNL1        0.0660
      8 C           0.6767   59.4008   76.7400 C.3     1  UNL1        0.1459
      9 C          -0.4506   58.3947   76.4801 C.3     1  UNL1        0.0453
     10 C          -0.8094   57.7208   77.8030 C.3     1  UNL1        0.0297
     11 F           1.1806   54.7855   81.1054 F       1  UNL1       -0.2042
     12 C           4.7334   58.4283   79.5639 C.3     1  UNL1        0.0047
     13 C           4.1805   57.5442   78.4442 C.3     1  UNL1        0.0221
     14 C           5.0915   56.3293   78.2568 C.3     1  UNL1        0.0047
     15 C           0.8971   60.2610   75.4941 C.3     1  UNL1        0.1012
     16 C           0.0910   59.6858   74.3279 C.3     1  UNL1        0.1092
     17 C          -2.1270   60.5898   73.9732 C.3     1  UNL1        0.1672
     18 N          -0.6860   60.7760   73.7017 N.4     1  UNL1        0.2805
     19 H          -0.3865   61.6666   74.0985 H       1  UNL1        0.2069
     20 C          -0.4452   60.7949   72.2435 C.3     1  UNL1        0.1062
     21 C           0.6944   61.7710   71.9442 C.3     1  UNL1        0.0736
     22 C           1.2874   61.4565   70.5693 C.3     1  UNL1        0.1214
     23 C           2.1316   62.6169   70.1090 C.ar    1  UNL1        0.2655
     24 N           1.6454   63.8156   69.6879 N.ar    1  UNL1       -0.2397
     25 C           2.7288   64.6047   69.3570 C.ar    1  UNL1        0.1820
     26 C           2.8710   65.9000   68.8781 C.ar    1  UNL1        0.0458
     27 C           4.1311   66.4047   68.6381 C.ar    1  UNL1        0.0039
     28 C           5.2565   65.6268   68.8712 C.ar    1  UNL1        0.0039
     29 C           5.1357   64.3503   69.3424 C.ar    1  UNL1        0.0458
     30 C           3.8684   63.8177   69.5933 C.ar    1  UNL1        0.1820
     31 N           3.4314   62.6164   70.0512 N.ar    1  UNL1       -0.2397
     32 H           0.6968   64.0727   69.6299 H       1  UNL1        0.3110
     33 H           4.0100   61.8601   70.3014 H       1  UNL1        0.3110
     34 O           0.3251   60.2497   77.8644 O.3     1  UNL1       -0.4552
     35 C           1.0733   61.3475   78.0563 C.2     1  UNL1        0.3162
     36 O           0.6504   62.4314   77.7305 O.2     1  UNL1       -0.2501
     37 C           2.4406   61.2281   78.6785 C.3     1  UNL1        0.0991
     38 C           2.5412   61.3793   80.1977 C.3     1  UNL1        0.0116
     39 C           3.0552   62.4929   79.2816 C.3     1  UNL1        0.0116
@<TRIPOS>UNITY_ATOM_ATTR
18 1
charge 1
31 1
charge 1
@<TRIPOS>BOND
     1    12    13    1
     2    13    14    1
     3    13     1    1
     4     1     6   ar
     5     1     2   ar
     6     2     3   ar
     7     3     4   ar
     8     3    11    1
     9     4     5   ar
    10     5    10    1
    11     5     6   ar
    12     6     7    1
    13     7     8    1
    14     8     9    1
    15     8    15    1
    16     8    34    1
    17     9    10    1
    18    15    16    1
    19    16    18    1
    20    17    18    1
    21    20    21    1
    22    20    18    1
    23    21    22    1
    24    22    23    1
    25    23    31   ar
    26    23    24   ar
    27    24    25   ar
    28    25    30   ar
    29    25    26   ar
    30    26    27   ar
    31    27    28   ar
    32    28    29   ar
    33    29    30   ar
    34    30    31   ar
    35    34    35    1
    36    35    36    2
    37    35    37    1
    38    37    39    1
    39    37    38    1
    40    38    39    1
    41    24    32    1
    42    31    33    1
    43    18    19    1
#	Name:			ZINC08397361
#	Creating user name:	trannguyen
#	Creation time:		Thu Dec  1 16:45:04 2022


#	Modifying user name:	trannguyen
#	Modification time:	Thu Dec  1 16:45:04 2022

@<TRIPOS>MOLECULE
ZINC08397361
 43 46 0 0 0
SMALL
GASTEIGER

@<TRIPOS>ATOM
      1 C          -3.2772   60.5319   74.5213 C.ar    1  UNL1        0.2409
      2 N          -2.7011   59.3862   74.8739 N.ar    1  UNL1       -0.1797
      3 C          -3.4395   58.2927   75.0338 C.ar    1  UNL1        0.2220
      4 N          -4.7541   58.3441   74.8414 N.ar    1  UNL1       -0.1808
      5 C          -5.3301   59.4893   74.4891 C.ar    1  UNL1        0.2254
      6 N          -4.5911   60.5820   74.3241 N.ar    1  UNL1       -0.1794
      7 N          -2.5101   61.6680   74.3552 N.pl3   1  UNL1       -0.2043
      8 H          -2.7639   62.5041   74.8090 H       1  UNL1        0.1775
      9 C          -1.4967   61.5975   72.2497 C.2     1  UNL1        0.1177
     10 N          -1.3707   61.6310   73.5409 N.2     1  UNL1       -0.1774
     11 C           1.9422   61.8676   69.7693 C.ar    1  UNL1        0.1730
     12 C           0.9512   62.8348   69.6881 C.ar    1  UNL1        0.0401
     13 C          -0.1694   62.7474   70.4871 C.ar    1  UNL1        0.0049
     14 C          -0.3027   61.6893   71.3897 C.ar    1  UNL1        0.0239
     15 C           0.6957   60.7154   71.4712 C.ar    1  UNL1        0.0416
     16 C           1.8133   60.8065   70.6624 C.ar    1  UNL1        0.1725
     17 O           2.7871   59.8602   70.7393 O.3     1  UNL1       -0.4684
     18 C           2.3734   58.4952   70.6526 C.3     1  UNL1        0.2526
     19 O           3.0421   61.9554   68.9749 O.3     1  UNL1       -0.4607
     20 C           3.9232   63.0564   69.2061 C.3     1  UNL1        0.3142
     21 C           3.9189   63.9644   68.0033 C.2     1  UNL1        0.3620
     22 O           3.2227   63.7025   67.0512 O.2     1  UNL1       -0.2459
     23 O           4.6886   65.0640   67.9897 O.3     1  UNL1       -0.4459
     24 C           3.4792   66.9573   68.9292 C.3     1  UNL1        0.0513
     25 C           4.0392   66.3191   67.6565 C.3     1  UNL1        0.2087
     26 N          -6.6958   59.5425   74.2888 N.pl3   1  UNL1       -0.2824
     27 H          -7.0935   59.1193   73.4939 H       1  UNL1        0.1551
     28 C          -7.5146   60.1984   75.2167 C.ar    1  UNL1        0.0507
     29 C          -7.3051   60.0181   76.5775 C.ar    1  UNL1        0.0178
     30 C          -8.1095   60.6694   77.4917 C.ar    1  UNL1        0.0382
     31 C          -9.1336   61.4947   77.0509 C.ar    1  UNL1        0.1388
     32 C          -9.3468   61.6710   75.6917 C.ar    1  UNL1        0.0382
     33 C          -8.5399   61.0247   74.7762 C.ar    1  UNL1        0.0178
     34 O          -9.9286   62.1315   77.9518 O.3     1  UNL1       -0.4714
     35 C          -9.3161   62.5570   79.1708 C.3     1  UNL1        0.2525
     36 N          -2.8417   57.1038   75.4001 N.pl3   1  UNL1       -0.2964
     37 H          -1.8630   57.0092   75.3503 H       1  UNL1        0.1500
     38 C          -3.6634   55.9828   75.8630 C.3     1  UNL1        0.1550
     39 C          -3.0138   54.6839   75.4605 C.ar    1  UNL1        0.1428
     40 C          -3.5246   53.4551   75.6559 C.ar    1  UNL1        0.0379
     41 C          -2.5905   52.5343   75.1281 C.ar    1  UNL1        0.0435
     42 C          -1.5646   53.2557   74.6418 C.ar    1  UNL1        0.1792
     43 O          -1.8290   54.5573   74.8407 O.2     1  UNL1       -0.4530
@<TRIPOS>BOND
     1    24    25    1
     2    25    23    1
     3    23    21    1
     4    21    22    2
     5    21    20    1
     6    20    19    1
     7    19    11    1
     8    11    16   ar
     9    11    12   ar
    10    12    13   ar
    11    13    14   ar
    12    14    15   ar
    13    14     9    1
    14    15    16   ar
    15    16    17    1
    16    17    18    1
    17     9    10    2
    18    10     7    1
    19     7     1    1
    20     1     6   ar
    21     1     2   ar
    22     2     3   ar
    23     3     4   ar
    24     3    36    1
    25     4     5   ar
    26     5     6   ar
    27     5    26    1
    28    26    28    1
    29    28    33   ar
    30    28    29   ar
    31    29    30   ar
    32    30    31   ar
    33    31    32   ar
    34    31    34    1
    35    32    33   ar
    36    34    35    1
    37    36    38    1
    38    38    39    1
    39    39    43   ar
    40    39    40   ar
    41    40    41   ar
    42    41    42   ar
    43    42    43   ar
    44     7     8    1
    45    26    27    1
    46    36    37    1
#	Name:			ZINC08612376
#	Creating user name:	trannguyen
#	Creation time:		Thu Dec  1 16:45:04 2022


#	Modifying user name:	trannguyen
#	Modification time:	Thu Dec  1 16:45:04 2022

@<TRIPOS>MOLECULE
ZINC08612376
 27 29 0 0 0
SMALL
GASTEIGER

@<TRIPOS>ATOM
      1 N           2.5444   62.5146   70.8753 N.am    1  UNL1       -0.2501
      2 C           2.3823   61.2296   70.5026 C.2     1  UNL1        0.2728
      3 O           2.9285   60.8148   69.5025 O.2     1  UNL1       -0.2706
      4 H           2.1009   62.8514   71.6871 H       1  UNL1        0.1579
      5 C           4.1046   64.8894   68.7440 C.ar    1  UNL1        0.1244
      6 C           2.9053   64.3198   69.2445 C.ar    1  UNL1        0.0786
      7 C           3.3364   63.3631   70.1146 C.ar    1  UNL1        0.2326
      8 O           4.6782   63.3993   70.0861 O.2     1  UNL1       -0.3381
      9 N           5.0876   64.2455   69.3262 N.ar    1  UNL1       -0.0754
     10 C           4.5635   69.1576   64.9037 C.3     1  UNL1        0.0310
     11 C           4.4432   68.0407   65.9082 C.ar    1  UNL1       -0.0218
     12 C           3.5002   68.1198   66.9171 C.ar    1  UNL1       -0.0042
     13 C           3.3861   67.0999   67.8400 C.ar    1  UNL1        0.0013
     14 C           4.2229   65.9895   67.7542 C.ar    1  UNL1        0.0210
     15 C           5.1748   65.9175   66.7396 C.ar    1  UNL1        0.0013
     16 C           5.2765   66.9404   65.8184 C.ar    1  UNL1       -0.0042
     17 C           1.5223   60.3083   71.3287 C.3     1  UNL1        0.2897
     18 O           1.2636   60.9096   72.5990 O.3     1  UNL1       -0.4663
     19 C           0.0301   60.7139   73.1346 C.ar    1  UNL1        0.1312
     20 C          -1.0877   61.2641   72.5242 C.ar    1  UNL1        0.0115
     21 C          -2.3399   61.0689   73.0741 C.ar    1  UNL1       -0.0055
     22 C          -2.4810   60.3162   74.2253 C.ar    1  UNL1       -0.0223
     23 C          -1.3692   59.7624   74.8326 C.ar    1  UNL1       -0.0055
     24 C          -0.1142   59.9595   74.2899 C.ar    1  UNL1        0.0115
     25 C           1.0972   59.3551   74.9520 C.3     1  UNL1        0.0342
     26 C          -3.8489   60.0997   74.8194 C.3     1  UNL1        0.0310
     27 C          -0.9353   62.0790   71.2657 C.3     1  UNL1        0.0342
@<TRIPOS>BOND
     1    10    11    1
     2    11    16   ar
     3    11    12   ar
     4    12    13   ar
     5    13    14   ar
     6    14    15   ar
     7    14     5    1
     8    15    16   ar
     9     5     9   ar
    10     5     6   ar
    11     6     7   ar
    12     7     8   ar
    13     7     1    1
    14     8     9   ar
    15     1     2   am
    16     2     3    2
    17     2    17    1
    18    17    18    1
    19    18    19    1
    20    19    24   ar
    21    19    20   ar
    22    20    21   ar
    23    20    27    1
    24    21    22   ar
    25    22    23   ar
    26    22    26    1
    27    23    24   ar
    28    24    25    1
    29     1     4    1
#	Name:			ZINC08623849
#	Creating user name:	trannguyen
#	Creation time:		Thu Dec  1 16:45:04 2022


#	Modifying user name:	trannguyen
#	Modification time:	Thu Dec  1 16:45:04 2022

@<TRIPOS>MOLECULE
ZINC08623849
 41 46 0 0 0
SMALL
GASTEIGER

@<TRIPOS>ATOM
      1 C          -0.6282   58.2648   76.6811 C.3     1  UNL1        0.0845
      2 C           0.4786   57.2068   76.6876 C.3     1  UNL1        0.1147
      3 C           1.8375   57.8884   76.5093 C.3     1  UNL1        0.0651
      4 C           1.8327   58.6987   75.2092 C.3     1  UNL1        0.1162
      5 C           0.6900   59.7150   75.2595 C.3     1  UNL1        0.0998
      6 C          -1.7331   59.9059   75.2710 C.3     1  UNL1        0.1599
      7 C          -1.8632   60.3412   73.8048 C.3     1  UNL1        0.0944
      8 C          -0.5046   60.7841   73.3229 C.ar    1  UNL1        0.0024
      9 C           0.6480   60.5045   73.9747 C.ar    1  UNL1        0.0799
     10 N           1.7067   61.0386   73.2922 N.ar    1  UNL1       -0.3524
     11 C           1.2584   61.6818   72.1738 C.ar    1  UNL1        0.0562
     12 C          -0.1547   61.5491   72.1469 C.ar    1  UNL1        0.0131
     13 C          -0.9155   62.1081   71.1157 C.ar    1  UNL1        0.0012
     14 C          -0.2319   62.7854   70.1361 C.ar    1  UNL1        0.0001
     15 C           1.1466   62.9163   70.1568 C.ar    1  UNL1        0.0015
     16 C           1.9246   62.3743   71.1656 C.ar    1  UNL1        0.0169
     17 N          -0.5847   58.9748   75.3855 N.4     1  UNL1        0.2792
     18 H           2.6498   60.9697   73.5660 H       1  UNL1        0.1658
     19 H          -0.6457   58.2907   74.6314 H       1  UNL1        0.2073
     20 C          -0.0278   60.9762   79.9270 C.ar    1  UNL1       -0.0225
     21 C          -0.2254   59.6311   80.1774 C.ar    1  UNL1       -0.0044
     22 C          -0.4195   58.7537   79.1270 C.ar    1  UNL1        0.0009
     23 C          -0.4165   59.2214   77.8262 C.ar    1  UNL1        0.0268
     24 C          -0.2136   60.5656   77.5755 C.ar    1  UNL1        0.0009
     25 C          -0.0235   61.4436   78.6261 C.ar    1  UNL1       -0.0044
     26 C           1.4085   61.4992   81.8795 C.3     1  UNL1        0.0047
     27 C           0.1835   61.9328   81.0721 C.3     1  UNL1        0.0224
     28 C           0.4073   63.3434   80.5235 C.3     1  UNL1        0.0047
     29 N           2.0810   58.7895   77.6516 N.4     1  UNL1        0.2543
     30 H           1.4727   58.5231   78.4258 H       1  UNL1        0.2037
     31 H           1.8834   59.7484   77.3658 H       1  UNL1        0.2037
     32 C           3.4881   58.6984   78.0849 C.3     1  UNL1        0.1360
     33 C           3.8711   59.9734   78.7911 C.ar    1  UNL1        0.0620
     34 C           3.5059   61.2480   78.5096 C.ar    1  UNL1        0.0084
     35 C           3.9843   62.2733   79.3036 C.ar    1  UNL1        0.0074
     36 C           4.8046   61.9738   80.3403 C.ar    1  UNL1        0.0353
     37 S           4.9229   60.1968   80.2162 S.2     1  UNL1       -0.0850
     38 C          -2.9907   59.1930   75.6967 C.2     1  UNL1        0.3677
     39 O          -3.7232   59.6967   76.5151 O.2     1  UNL1       -0.2437
     40 O          -3.2971   57.9985   75.1668 O.3     1  UNL1       -0.4405
     41 C          -4.2848   57.1992   75.8698 C.3     1  UNL1        0.2558
@<TRIPOS>UNITY_ATOM_ATTR
17 1
charge 1
29 1
charge 1
@<TRIPOS>BOND
     1    26    27    1
     2    27    28    1
     3    27    20    1
     4    20    25   ar
     5    20    21   ar
     6    21    22   ar
     7    22    23   ar
     8    23    24   ar
     9    23     1    1
    10    24    25   ar
    11     1     2    1
    12     1    17    1
    13     2     3    1
    14     3     4    1
    15     3    29    1
    16     4     5    1
    17     5     9    1
    18     5    17    1
    19     6     7    1
    20     6    38    1
    21     6    17    1
    22     7     8    1
    23     8    12   ar
    24     8     9   ar
    25     9    10   ar
    26    10    11   ar
    27    11    16   ar
    28    11    12   ar
    29    12    13   ar
    30    13    14   ar
    31    14    15   ar
    32    15    16   ar
    33    38    39    2
    34    38    40    1
    35    40    41    1
    36    32    33    1
    37    32    29    1
    38    33    37   ar
    39    33    34   ar
    40    34    35   ar
    41    35    36   ar
    42    36    37   ar
    43    10    18    1
    44    17    19    1
    45    29    30    1
    46    29    31    1
#	Name:			ZINC08757864
#	Creating user name:	trannguyen
#	Creation time:		Thu Dec  1 16:45:04 2022


#	Modifying user name:	trannguyen
#	Modification time:	Thu Dec  1 16:45:04 2022

@<TRIPOS>MOLECULE
ZINC08757864
 41 45 0 0 0
SMALL
GASTEIGER

@<TRIPOS>ATOM
      1 C          -1.0494   61.3173   71.9176 C.3     1  UNL1        0.1413
      2 C           2.1230   61.7873   70.1848 C.ar    1  UNL1        0.0187
      3 C           0.9180   62.2362   70.6812 C.ar    1  UNL1        0.0759
      4 N           0.2601   61.2082   71.2697 N.ar    1  UNL1       -0.3233
      5 C           0.9954   60.0441   71.1745 C.ar    1  UNL1        0.0600
      6 C           2.1861   60.3459   70.4946 C.ar    1  UNL1        0.0172
      7 C           3.1229   59.3461   70.2483 C.ar    1  UNL1        0.0015
      8 C           2.8782   58.0602   70.6801 C.ar    1  UNL1        0.0001
      9 C           1.7052   57.7612   71.3568 C.ar    1  UNL1        0.0015
     10 C           0.7692   58.7415   71.6068 C.ar    1  UNL1        0.0172
     11 C           3.6966   63.6527   70.0833 C.2     1  UNL1        0.0421
     12 C           3.1294   62.5775   69.4780 C.2     1  UNL1        0.0048
     13 C           4.6686   64.4159   69.4005 C.2     1  UNL1        0.1956
     14 O           5.8414   64.0888   69.4446 O.2     1  UNL1       -0.2866
     15 C           3.0902   69.0734   66.4094 C.3     1  UNL1        0.0310
     16 C           3.5035   67.8540   67.1925 C.ar    1  UNL1       -0.0218
     17 C           2.8034   67.4968   68.3313 C.ar    1  UNL1       -0.0042
     18 C           3.1766   66.3818   69.0527 C.ar    1  UNL1        0.0029
     19 C           4.2629   65.6134   68.6315 C.ar    1  UNL1        0.0389
     20 C           4.9683   65.9822   67.4851 C.ar    1  UNL1        0.0029
     21 C           4.5810   67.0962   66.7693 C.ar    1  UNL1       -0.0042
     22 C          -0.8600   61.4644   73.4287 C.3     1  UNL1        0.1883
     23 O          -1.7530   62.4634   73.9257 O.3     1  UNL1       -0.3773
     24 H          -2.6679   62.2012   73.7384 H       1  UNL1        0.2107
     25 C          -1.1578   60.1285   74.1125 C.3     1  UNL1        0.1339
     26 N          -1.3213   60.3529   75.5612 N.4     1  UNL1        0.2564
     27 H          -1.5535   61.3324   75.7258 H       1  UNL1        0.2036
     28 H          -0.4491   60.1162   76.0340 H       1  UNL1        0.2036
     29 C          -2.4017   59.5007   76.0927 C.3     1  UNL1        0.1072
     30 C          -3.2126   58.9332   74.9259 C.3     1  UNL1        0.0886
     31 C          -4.5954   59.5323   74.9369 C.ar    1  UNL1        0.0021
     32 C          -5.0135   60.5889   74.2222 C.ar    1  UNL1        0.0683
     33 N          -6.3307   60.8428   74.4919 N.ar    1  UNL1       -0.3523
     34 C          -6.8044   59.9328   75.4101 C.ar    1  UNL1        0.0563
     35 C          -5.7398   59.0683   75.7248 C.ar    1  UNL1        0.0129
     36 C          -5.9294   58.0367   76.6460 C.ar    1  UNL1       -0.0031
     37 C          -7.1529   57.8653   77.2302 C.ar    1  UNL1       -0.0218
     38 C          -8.2077   58.7117   76.9189 C.ar    1  UNL1       -0.0028
     39 C          -8.0411   59.7396   76.0164 C.ar    1  UNL1        0.0166
     40 C          -7.3583   56.7477   78.2202 C.3     1  UNL1        0.0310
     41 H          -6.8608   61.5682   74.0893 H       1  UNL1        0.1660
@<TRIPOS>UNITY_ATOM_ATTR
26 1
charge 1
@<TRIPOS>BOND
     1    15    16    1
     2    16    21   ar
     3    16    17   ar
     4    17    18   ar
     5    18    19   ar
     6    19    20   ar
     7    19    13    1
     8    20    21   ar
     9    13    14    2
    10    13    11    1
    11    11    12    2
    12    12     2    1
    13     2     6   ar
    14     2     3   ar
    15     3     4   ar
    16     4     5   ar
    17     4     1    1
    18     5    10   ar
    19     5     6   ar
    20     6     7   ar
    21     7     8   ar
    22     8     9   ar
    23     9    10   ar
    24     1    22    1
    25    22    25    1
    26    22    23    1
    27    25    26    1
    28    29    30    1
    29    29    26    1
    30    30    31    1
    31    31    35   ar
    32    31    32   ar
    33    32    33   ar
    34    33    34   ar
    35    34    39   ar
    36    34    35   ar
    37    35    36   ar
    38    36    37   ar
    39    37    38   ar
    40    37    40    1
    41    38    39   ar
    42    33    41    1
    43    23    24    1
    44    26    27    1
    45    26    28    1
#	Name:			ZINC08846833
#	Creating user name:	trannguyen
#	Creation time:		Thu Dec  1 16:45:04 2022


#	Modifying user name:	trannguyen
#	Modification time:	Thu Dec  1 16:45:04 2022

@<TRIPOS>MOLECULE
ZINC08846833
 38 40 0 0 0
SMALL
GASTEIGER

@<TRIPOS>ATOM
      1 C           3.5827   58.2855   77.2114 C.3     1  UNL1        0.0001
      2 C           2.5198   57.7368   76.2554 C.3     1  UNL1        0.0016
      3 C           1.8715   56.4880   76.8283 C.3     1  UNL1        0.0195
      4 C           0.8293   56.7696   77.8937 C.3     1  UNL1        0.0707
      5 C          -0.1943   57.7952   77.4452 C.3     1  UNL1        0.0212
      6 C           0.4150   59.0690   76.8845 C.3     1  UNL1        0.0196
      7 C           1.5174   58.8093   75.8763 C.3     1  UNL1        0.0017
      8 C           0.9008   59.9825   78.0132 C.3     1  UNL1        0.0017
      9 C           3.2599   57.3171   74.9606 C.3     1  UNL1        0.0001
     10 N           1.4395   57.1310   79.1706 N.am    1  UNL1       -0.3175
     11 H           1.7104   58.0621   79.3407 H       1  UNL1        0.1484
     12 C           1.6316   56.1899   80.1161 C.2     1  UNL1        0.1351
     13 S           0.5606   54.8589   80.2290 S.2     1  UNL1       -0.0185
     14 N           2.6666   56.2966   80.9726 N.am    1  UNL1       -0.2958
     15 H           2.5087   56.2534   81.9435 H       1  UNL1        0.1539
     16 C           3.9653   56.4686   80.4823 C.ar    1  UNL1        0.0526
     17 C           4.5111   55.5310   79.6142 C.ar    1  UNL1        0.0148
     18 C           5.7936   55.7007   79.1305 C.ar    1  UNL1        0.0044
     19 C           6.5371   56.8032   79.5077 C.ar    1  UNL1        0.0370
     20 C           5.9968   57.7434   80.3736 C.ar    1  UNL1        0.1400
     21 C           4.7082   57.5790   80.8576 C.ar    1  UNL1        0.0515
     22 O           6.7290   58.8268   80.7436 O.3     1  UNL1       -0.4714
     23 C           6.1873   60.1124   80.4340 C.3     1  UNL1        0.2525
     24 C          -0.7144   59.8327   76.1487 C.3     1  UNL1        0.0883
     25 N          -0.2041   60.3534   74.8780 N.am    1  UNL1       -0.3159
     26 H           0.6853   60.7737   74.8397 H       1  UNL1        0.1485
     27 C          -0.9524   60.2569   73.7611 C.2     1  UNL1        0.1351
     28 S          -2.5064   60.9733   73.7073 S.2     1  UNL1       -0.0185
     29 N          -0.4773   59.5963   72.6867 N.am    1  UNL1       -0.2958
     30 H          -0.7665   58.6721   72.5095 H       1  UNL1        0.1539
     31 C           0.4268   60.2239   71.8233 C.ar    1  UNL1        0.0526
     32 C           1.4050   59.4775   71.1780 C.ar    1  UNL1        0.0148
     33 C           2.2981   60.0974   70.3259 C.ar    1  UNL1        0.0044
     34 C           2.2212   61.4609   70.1128 C.ar    1  UNL1        0.0370
     35 C           1.2463   62.2114   70.7547 C.ar    1  UNL1        0.1400
     36 C           0.3482   61.5929   71.6106 C.ar    1  UNL1        0.0515
     37 O           1.1720   63.5519   70.5441 O.3     1  UNL1       -0.4714
     38 C           2.1795   64.1354   69.7155 C.3     1  UNL1        0.2525
@<TRIPOS>BOND
     1     1     2    1
     2     2     7    1
     3     2     3    1
     4     2     9    1
     5     3     4    1
     6     4     5    1
     7     4    10    1
     8     5     6    1
     9     6     7    1
    10     6     8    1
    11     6    24    1
    12    24    25    1
    13    25    27    1
    14    27    28    2
    15    27    29    1
    16    29    31    1
    17    31    36   ar
    18    31    32   ar
    19    32    33   ar
    20    33    34   ar
    21    34    35   ar
    22    35    36   ar
    23    35    37    1
    24    37    38    1
    25    10    12    1
    26    12    13    2
    27    12    14    1
    28    14    16    1
    29    16    21   ar
    30    16    17   ar
    31    17    18   ar
    32    18    19   ar
    33    19    20   ar
    34    20    21   ar
    35    20    22    1
    36    22    23    1
    37    25    26    1
    38    29    30    1
    39    10    11    1
    40    14    15    1
#	Name:			ZINC08855353
#	Creating user name:	trannguyen
#	Creation time:		Thu Dec  1 16:45:04 2022


#	Modifying user name:	trannguyen
#	Modification time:	Thu Dec  1 16:45:04 2022

@<TRIPOS>MOLECULE
ZINC08855353
 31 33 0 0 0
SMALL
GASTEIGER

@<TRIPOS>ATOM
      1 C           1.1957   59.0439   75.2837 C.ar    1  UNL1        0.1492
      2 C           0.8888   58.7160   76.6013 C.ar    1  UNL1        0.0579
      3 C          -0.2687   59.2060   77.1688 C.ar    1  UNL1        0.1052
      4 N          -1.0925   59.9811   76.4869 N.ar    1  UNL1       -0.2095
      5 C          -0.8529   60.3259   75.2334 C.ar    1  UNL1        0.2370
      6 C           0.3023   59.8707   74.5791 C.ar    1  UNL1        0.1409
      7 C           0.5737   60.2515   73.1838 C.2     1  UNL1        0.2582
      8 O           0.2705   59.4987   72.2780 O.2     1  UNL1       -0.2695
      9 N           1.1583   61.4346   72.9096 N.am    1  UNL1       -0.2607
     10 H           1.4037   62.0440   73.6428 H       1  UNL1        0.1568
     11 C           1.4131   61.7921   71.5996 C.2     1  UNL1        0.2081
     12 N           2.5225   62.3774   71.2944 N.2     1  UNL1       -0.0642
     13 O           2.7838   62.7438   69.9518 O.2     1  UNL1       -0.3712
     14 C           4.0762   63.3182   69.7470 C.3     1  UNL1        0.2651
     15 C           3.9325   64.6347   69.0279 C.ar    1  UNL1        0.0241
     16 C           2.7638   65.3633   69.1473 C.ar    1  UNL1        0.0003
     17 C           2.6336   66.5735   68.4925 C.ar    1  UNL1        0.0112
     18 C           3.6689   67.0504   67.7084 C.ar    1  UNL1        0.0577
     19 C           4.8362   66.3180   67.5848 C.ar    1  UNL1        0.0112
     20 C           4.9674   65.1107   68.2446 C.ar    1  UNL1        0.0003
     21 CL          3.5036   68.5672   66.8804 Cl      1  UNL1       -0.0822
     22 C           2.8861   57.3775   75.2334 C.3     1  UNL1        0.2525
     23 O           2.3219   58.5745   74.6939 O.3     1  UNL1       -0.4711
     24 O          -1.7282   61.1231   74.5760 O.3     1  UNL1       -0.4358
     25 C          -3.0502   60.8157   74.6491 C.ar    1  UNL1        0.1472
     26 C          -3.4595   59.4911   74.5943 C.ar    1  UNL1        0.0384
     27 C          -4.8031   59.1806   74.6740 C.ar    1  UNL1        0.0145
     28 C          -5.7414   60.1902   74.7968 C.ar    1  UNL1        0.0579
     29 C          -5.3356   61.5121   74.8463 C.ar    1  UNL1        0.0145
     30 C          -3.9926   61.8264   74.7727 C.ar    1  UNL1        0.0384
     31 CL         -7.4299   59.7976   74.8895 Cl      1  UNL1       -0.0822
@<TRIPOS>BOND
     1    22    23    1
     2    23     1    1
     3     1     6   ar
     4     1     2   ar
     5     2     3   ar
     6     3     4   ar
     7     4     5   ar
     8     5     6   ar
     9     5    24    1
    10     6     7    1
    11     7     8    2
    12     7     9   am
    13     9    11    1
    14    11    12    2
    15    12    13    1
    16    13    14    1
    17    14    15    1
    18    15    20   ar
    19    15    16   ar
    20    16    17   ar
    21    17    18   ar
    22    18    19   ar
    23    18    21    1
    24    19    20   ar
    25    24    25    1
    26    25    30   ar
    27    25    26   ar
    28    26    27   ar
    29    27    28   ar
    30    28    29   ar
    31    28    31    1
    32    29    30   ar
    33     9    10    1
#	Name:			ZINC08980752
#	Creating user name:	trannguyen
#	Creation time:		Thu Dec  1 16:45:04 2022


#	Modifying user name:	trannguyen
#	Modification time:	Thu Dec  1 16:45:04 2022

@<TRIPOS>MOLECULE
ZINC08980752
 27 29 0 0 0
SMALL
GASTEIGER

@<TRIPOS>ATOM
      1 C          -4.1611   59.6182   75.4217 C.ar    1  UNL1        0.1151
      2 C          -3.8481   58.8595   76.5091 C.ar    1  UNL1        0.1316
      3 O          -2.5183   58.7296   76.5979 O.2     1  UNL1       -0.4400
      4 C          -1.8940   59.3780   75.6006 C.ar    1  UNL1        0.2354
      5 C          -2.8726   59.9729   74.8040 C.ar    1  UNL1        0.1185
      6 C          -2.4796   60.7237   73.6755 C.ar    1  UNL1        0.2671
      7 O          -3.3079   61.2575   72.9575 O.2     1  UNL1       -0.2668
      8 N          -1.1566   60.8342   73.4140 N.ar    1  UNL1       -0.2738
      9 C          -0.2516   60.2285   74.2220 C.ar    1  UNL1        0.1841
     10 N          -0.6033   59.5369   75.2694 N.ar    1  UNL1       -0.1906
     11 C          -4.8458   58.2585   77.4654 C.3     1  UNL1        0.0728
     12 C          -5.5040   60.0029   74.9619 C.2     1  UNL1        0.3442
     13 O          -6.0258   59.4046   74.0413 O.2     1  UNL1       -0.2448
     14 O          -6.1563   61.0191   75.5612 O.3     1  UNL1       -0.4454
     15 C          -6.4999   63.3910   75.1297 C.3     1  UNL1        0.0513
     16 C          -5.5012   62.3148   75.5603 C.3     1  UNL1        0.2089
     17 C          -0.7018   61.6037   72.2533 C.3     1  UNL1        0.1373
     18 C           0.4015   60.8525   71.5537 C.ar    1  UNL1        0.0005
     19 C           0.6296   59.5221   71.8529 C.ar    1  UNL1       -0.0024
     20 C           1.6415   58.8331   71.2113 C.ar    1  UNL1       -0.0003
     21 C           2.4248   59.4740   70.2694 C.ar    1  UNL1        0.0038
     22 C           2.1999   60.8052   69.9737 C.ar    1  UNL1        0.0712
     23 C           1.1849   61.4933   70.6124 C.ar    1  UNL1        0.0015
     24 C           3.0578   61.5055   68.9517 C.3     1  UNL1        0.4186
     25 F           3.9400   60.5859   68.3745 F       1  UNL1       -0.1659
     26 F           2.2425   62.0568   67.9574 F       1  UNL1       -0.1659
     27 F           3.7874   62.5240   69.5742 F       1  UNL1       -0.1659
@<TRIPOS>BOND
     1    15    16    1
     2    16    14    1
     3    14    12    1
     4    12    13    2
     5    12     1    1
     6     1     5   ar
     7     1     2   ar
     8     2     3   ar
     9     2    11    1
    10     3     4   ar
    11     4    10   ar
    12     4     5   ar
    13     5     6   ar
    14     6     7    2
    15     6     8   ar
    16     8     9   ar
    17     8    17    1
    18     9    10   ar
    19    17    18    1
    20    18    23   ar
    21    18    19   ar
    22    19    20   ar
    23    20    21   ar
    24    21    22   ar
    25    22    23   ar
    26    22    24    1
    27    24    25    1
    28    24    26    1
    29    24    27    1
#	Name:			ZINC09117528
#	Creating user name:	trannguyen
#	Creation time:		Thu Dec  1 16:45:04 2022


#	Modifying user name:	trannguyen
#	Modification time:	Thu Dec  1 16:45:04 2022

@<TRIPOS>MOLECULE
ZINC09117528
 35 39 0 0 0
SMALL
GASTEIGER

@<TRIPOS>ATOM
      1 N           2.3054   61.9822   70.2942 N.pl3   1  UNL1       -0.2863
      2 C           2.6092   61.1033   69.1576 C.3     1  UNL1        0.0927
      3 C           3.8416   61.6300   68.4189 C.3     1  UNL1        0.0220
      4 C           3.5673   63.0542   67.9278 C.3     1  UNL1        0.0126
      5 C           3.2054   63.9376   69.1251 C.3     1  UNL1        0.0963
      6 C           1.9914   63.3439   69.8434 C.3     1  UNL1        0.1017
      7 C          -2.3572   60.4842   73.4903 C.ar    1  UNL1        0.1026
      8 C          -1.9569   61.6301   72.8835 C.ar    1  UNL1        0.1217
      9 N          -0.7439   61.3749   72.2624 N.ar    1  UNL1       -0.2020
     10 C          -0.4734   60.0610   72.5344 C.ar    1  UNL1        0.1980
     11 N          -1.4228   59.5405   73.2558 N.ar    1  UNL1       -0.2193
     12 S           1.0792   59.8094   71.7059 S.2     1  UNL1       -0.0129
     13 C           1.2752   61.4633   71.0616 C.ar    1  UNL1        0.1854
     14 N           0.1954   62.0562   71.4947 N.ar    1  UNL1       -0.1412
     15 C          -7.1941   59.7769   76.5348 C.3     1  UNL1        0.0310
     16 C          -5.9283   59.9620   75.7383 C.ar    1  UNL1       -0.0218
     17 C          -5.0546   58.9018   75.5767 C.ar    1  UNL1       -0.0042
     18 C          -3.8942   59.0655   74.8479 C.ar    1  UNL1        0.0012
     19 C          -3.6031   60.3020   74.2744 C.ar    1  UNL1        0.0192
     20 C          -4.4842   61.3683   74.4453 C.ar    1  UNL1        0.0012
     21 C          -5.6443   61.1917   75.1718 C.ar    1  UNL1       -0.0042
     22 C           2.8754   65.3270   68.6436 C.2     1  UNL1        0.2237
     23 O           1.7253   65.7118   68.6443 O.2     1  UNL1       -0.2751
     24 N           3.8585   66.1419   68.2123 N.am    1  UNL1       -0.3041
     25 H           4.7921   65.8295   68.2118 H       1  UNL1        0.1494
     26 C           3.5377   67.4926   67.7444 C.3     1  UNL1        0.0955
     27 C           4.3789   67.8172   66.5082 C.3     1  UNL1        0.0821
     28 C           3.5443   68.6409   65.5254 C.3     1  UNL1        0.1071
     29 C           5.2242   69.1055   63.8454 C.3     1  UNL1        0.1053
     30 C           5.7369   68.6900   62.4646 C.3     1  UNL1        0.0611
     31 C           4.6652   68.9952   61.4145 C.3     1  UNL1        0.0122
     32 C           3.3756   68.2569   61.7834 C.3     1  UNL1        0.0611
     33 C           2.9312   68.6848   63.1839 C.3     1  UNL1        0.1053
     34 N           3.9956   68.3417   64.1507 N.4     1  UNL1        0.2758
     35 H           4.1994   67.3450   64.0774 H       1  UNL1        0.2067
@<TRIPOS>UNITY_ATOM_ATTR
34 1
charge 1
@<TRIPOS>BOND
     1    15    16    1
     2    16    21   ar
     3    16    17   ar
     4    17    18   ar
     5    18    19   ar
     6    19    20   ar
     7    19     7    1
     8    20    21   ar
     9     7    11   ar
    10     7     8   ar
    11     8     9   ar
    12     9    14   ar
    13     9    10   ar
    14    10    11   ar
    15    10    12   ar
    16    12    13   ar
    17    13    14   ar
    18    13     1    1
    19     1     6    1
    20     1     2    1
    21     2     3    1
    22     3     4    1
    23     4     5    1
    24     5     6    1
    25     5    22    1
    26    22    23    2
    27    22    24   am
    28    24    26    1
    29    26    27    1
    30    27    28    1
    31    28    34    1
    32    29    30    1
    33    29    34    1
    34    30    31    1
    35    31    32    1
    36    32    33    1
    37    33    34    1
    38    24    25    1
    39    34    35    1
#	Name:			ZINC10303318
#	Creating user name:	trannguyen
#	Creation time:		Thu Dec  1 16:45:04 2022


#	Modifying user name:	trannguyen
#	Modification time:	Thu Dec  1 16:45:04 2022

@<TRIPOS>MOLECULE
ZINC10303318
 27 30 0 0 0
SMALL
GASTEIGER

@<TRIPOS>ATOM
      1 C           4.3260   63.7789   68.7541 C.3     1  UNL1        0.1112
      2 C           4.0613   63.8950   70.2565 C.3     1  UNL1        0.0202
      3 C           4.0374   65.1002   68.0896 C.ar    1  UNL1        0.1294
      4 N           2.9598   65.8120   68.5115 N.ar    1  UNL1       -0.3091
      5 C           2.6581   67.0046   67.9473 C.ar    1  UNL1        0.2599
      6 O           1.6957   67.6529   68.3155 O.2     1  UNL1       -0.2671
      7 C           3.5376   67.4867   66.8720 C.ar    1  UNL1        0.0736
      8 C           3.3145   68.7008   66.2257 C.ar    1  UNL1        0.0062
      9 C           4.1704   69.1041   65.2244 C.ar    1  UNL1        0.0003
     10 C           5.2500   68.3116   64.8563 C.ar    1  UNL1        0.0015
     11 C           5.4876   67.1086   65.4819 C.ar    1  UNL1        0.0193
     12 C           4.6342   66.6780   66.4998 C.ar    1  UNL1        0.0872
     13 N           4.8343   65.5026   67.1467 N.ar    1  UNL1       -0.2315
     14 H           2.3934   65.4570   69.2342 H       1  UNL1        0.1701
     15 S           3.2539   62.5021   68.0494 S.3     1  UNL1       -0.0689
     16 N           1.6275   61.6312   70.1535 N.ar    1  UNL1       -0.2900
     17 C           0.5013   62.0968   70.7952 C.ar    1  UNL1        0.1728
     18 N           0.1788   63.2376   70.2266 N.ar    1  UNL1       -0.1277
     19 N           1.0105   63.5092   69.2854 N.ar    1  UNL1       -0.1221
     20 C           1.9150   62.5611   69.1933 C.ar    1  UNL1        0.1935
     21 C          -0.2038   61.4442   71.9101 C.ar    1  UNL1        0.0654
     22 C          -1.5444   61.4415   72.2022 C.ar    1  UNL1        0.0101
     23 C          -1.9780   60.7471   73.3092 C.ar    1  UNL1        0.0076
     24 C          -1.0690   60.0981   74.0819 C.ar    1  UNL1        0.0355
     25 S           0.4625   60.4494   73.2345 S.2     1  UNL1       -0.0833
     26 C           2.3725   59.5099   69.1909 C.3     1  UNL1        0.0266
     27 C           2.3620   60.3959   70.4381 C.3     1  UNL1        0.1095
@<TRIPOS>BOND
     1    26    27    1
     2    27    16    1
     3    16    20   ar
     4    16    17   ar
     5    17    18   ar
     6    17    21    1
     7    18    19   ar
     8    19    20   ar
     9    20    15    1
    10    15     1    1
    11     1     2    1
    12     1     3    1
    13     3    13   ar
    14     3     4   ar
    15     4     5   ar
    16     5     6    2
    17     5     7   ar
    18     7    12   ar
    19     7     8   ar
    20     8     9   ar
    21     9    10   ar
    22    10    11   ar
    23    11    12   ar
    24    12    13   ar
    25    21    25   ar
    26    21    22   ar
    27    22    23   ar
    28    23    24   ar
    29    24    25   ar
    30     4    14    1
#	Name:			ZINC10423611
#	Creating user name:	trannguyen
#	Creation time:		Thu Dec  1 16:45:04 2022


#	Modifying user name:	trannguyen
#	Modification time:	Thu Dec  1 16:45:04 2022

@<TRIPOS>MOLECULE
ZINC10423611
 36 39 0 0 0
SMALL
GASTEIGER

@<TRIPOS>ATOM
      1 S          -4.0380   60.1510   74.3088 S.3     1  UNL1       -0.0768
      2 C          -0.0864   61.3110   72.6612 C.ar    1  UNL1        0.1865
      3 N          -1.1400   61.8204   72.0535 N.ar    1  UNL1       -0.1249
      4 N          -2.4041   61.5082   72.4975 N.ar    1  UNL1       -0.1331
      5 C          -2.5559   60.7081   73.5356 C.ar    1  UNL1        0.1611
      6 S          -0.8573   60.3343   73.9428 S.2     1  UNL1       -0.0242
      7 N           1.2639   61.4867   72.3793 N.pl3   1  UNL1       -0.2918
      8 H           1.8651   61.8603   73.0636 H       1  UNL1        0.1541
      9 C           1.9528   59.7948   70.8011 C.ar    1  UNL1       -0.0090
     10 C           2.4453   59.4487   69.5583 C.ar    1  UNL1       -0.0031
     11 C           2.7647   60.4329   68.6407 C.ar    1  UNL1       -0.0006
     12 C           2.5868   61.7662   68.9618 C.ar    1  UNL1       -0.0031
     13 C           2.0893   62.1192   70.2008 C.ar    1  UNL1       -0.0090
     14 C           1.7674   61.1331   71.1250 C.ar    1  UNL1        0.0416
     15 C           2.1028   57.3679   71.2874 C.3     1  UNL1        0.0051
     16 C           1.6110   58.7219   71.8027 C.3     1  UNL1        0.0276
     17 C           1.8954   63.5723   70.5496 C.3     1  UNL1        0.0276
     18 C           2.6544   64.4434   69.5466 C.3     1  UNL1        0.0051
     19 C          -3.6424   60.1672   76.0790 C.3     1  UNL1        0.1489
     20 C          -4.6952   60.9485   76.8220 C.2     1  UNL1        0.2344
     21 O          -5.4232   60.3858   77.6121 O.2     1  UNL1       -0.2741
     22 N          -4.8280   62.2726   76.6082 N.am    1  UNL1       -0.2955
     23 H          -4.2371   62.7294   75.9668 H       1  UNL1        0.1501
     24 C          -5.8517   63.0321   77.3305 C.3     1  UNL1        0.1517
     25 C          -6.6496   63.8555   76.3526 C.ar    1  UNL1        0.0027
     26 C          -6.0381   64.3778   75.2282 C.ar    1  UNL1       -0.0023
     27 C          -6.7710   65.1294   74.3289 C.ar    1  UNL1       -0.0003
     28 C          -8.1133   65.3668   74.5589 C.ar    1  UNL1       -0.0000
     29 C          -8.7237   64.8486   75.6857 C.ar    1  UNL1       -0.0003
     30 C          -7.9917   64.0932   76.5828 C.ar    1  UNL1       -0.0023
     31 C          -5.1885   63.9434   78.3309 C.ar    1  UNL1        0.1428
     32 N          -4.0598   64.5740   78.1541 N.ar    1  UNL1       -0.2273
     33 C          -3.7770   65.2912   79.2516 C.ar    1  UNL1        0.1189
     34 C          -4.7683   65.0976   80.1425 C.ar    1  UNL1        0.0978
     35 N          -5.6669   64.2473   79.5567 N.ar    1  UNL1       -0.3101
     36 C          -6.9128   63.7557   80.1502 C.3     1  UNL1        0.1317
@<TRIPOS>BOND
     1    15    16    1
     2    16     9    1
     3     9    14   ar
     4     9    10   ar
     5    10    11   ar
     6    11    12   ar
     7    12    13   ar
     8    13    14   ar
     9    13    17    1
    10    14     7    1
    11     7     2    1
    12     2     6   ar
    13     2     3   ar
    14     3     4   ar
    15     4     5   ar
    16     5     6   ar
    17     5     1    1
    18     1    19    1
    19    19    20    1
    20    20    21    2
    21    20    22   am
    22    22    24    1
    23    24    25    1
    24    24    31    1
    25    25    30   ar
    26    25    26   ar
    27    26    27   ar
    28    27    28   ar
    29    28    29   ar
    30    29    30   ar
    31    31    35   ar
    32    31    32   ar
    33    32    33   ar
    34    33    34   ar
    35    34    35   ar
    36    35    36    1
    37    17    18    1
    38     7     8    1
    39    22    23    1
#	Name:			ZINC10668160
#	Creating user name:	trannguyen
#	Creation time:		Thu Dec  1 16:45:04 2022


#	Modifying user name:	trannguyen
#	Modification time:	Thu Dec  1 16:45:04 2022

@<TRIPOS>MOLECULE
ZINC10668160
 37 40 0 0 0
SMALL
GASTEIGER

@<TRIPOS>ATOM
      1 N          -0.8582   60.3784   74.8659 N.am    1  UNL1       -0.2800
      2 C          -1.3383   59.9601   76.1917 C.3     1  UNL1        0.1539
      3 C          -2.6402   59.1722   76.0116 C.3     1  UNL1        0.1277
      4 C          -3.0825   60.2365   73.8779 C.3     1  UNL1        0.1277
      5 C          -1.7990   61.0687   73.9705 C.3     1  UNL1        0.1539
      6 N          -3.5956   60.0013   75.2451 N.4     1  UNL1        0.2806
      7 H          -3.7041   60.8997   75.7157 H       1  UNL1        0.2073
      8 C           0.4107   60.1358   74.4818 C.2     1  UNL1        0.1409
      9 S           1.3651   59.0063   75.3446 S.2     1  UNL1       -0.0182
     10 C           0.9341   60.1909   72.2076 C.2     1  UNL1        0.2508
     11 O           0.4729   59.0745   72.0744 O.2     1  UNL1       -0.2698
     12 N           0.9282   60.7825   73.4186 N.am    1  UNL1       -0.2636
     13 H           1.3018   61.6870   73.5265 H       1  UNL1        0.1568
     14 C           2.0991   62.9515   69.9376 C.ar    1  UNL1        0.1385
     15 C           2.5675   62.2245   68.8513 C.ar    1  UNL1        0.0369
     16 C           2.5039   60.8435   68.8578 C.ar    1  UNL1        0.0033
     17 C           1.9801   60.1777   69.9473 C.ar    1  UNL1        0.0047
     18 C           1.5015   60.9000   71.0417 C.ar    1  UNL1        0.0567
     19 C           1.5659   62.2941   71.0333 C.ar    1  UNL1        0.0414
     20 O           2.1638   64.3089   69.9252 O.3     1  UNL1       -0.4792
     21 C           3.0602   64.9072   68.9869 C.3     1  UNL1        0.1660
     22 C           2.7399   66.3973   68.8542 C.3     1  UNL1        0.0472
     23 C           5.4572   65.4053   68.4882 C.3     1  UNL1        0.0038
     24 C           4.4997   64.7367   69.4766 C.3     1  UNL1        0.0435
     25 C          -4.9095   59.3284   75.1817 C.3     1  UNL1        0.1013
     26 C          -5.1064   58.5201   76.4383 C.ar    1  UNL1        0.0311
     27 C          -5.2494   59.1591   77.6557 C.ar    1  UNL1        0.0015
     28 C          -5.4349   58.4180   78.8078 C.ar    1  UNL1       -0.0001
     29 C          -5.4674   57.0375   78.7438 C.ar    1  UNL1       -0.0000
     30 C          -5.3187   56.3983   77.5270 C.ar    1  UNL1       -0.0001
     31 C          -5.1384   57.1396   76.3743 C.ar    1  UNL1        0.0015
     32 C          -5.9887   60.3755   75.0837 C.ar    1  UNL1        0.0311
     33 C          -5.6510   61.7157   75.0569 C.ar    1  UNL1        0.0015
     34 C          -6.6408   62.6761   74.9620 C.ar    1  UNL1       -0.0001
     35 C          -7.9688   62.2967   74.9040 C.ar    1  UNL1       -0.0000
     36 C          -8.3067   60.9567   74.9365 C.ar    1  UNL1       -0.0001
     37 C          -7.3167   59.9961   75.0261 C.ar    1  UNL1        0.0015
@<TRIPOS>UNITY_ATOM_ATTR
6 1
charge 1
@<TRIPOS>BOND
     1    23    24    1
     2    24    21    1
     3    21    22    1
     4    21    20    1
     5    20    14    1
     6    14    19   ar
     7    14    15   ar
     8    15    16   ar
     9    16    17   ar
    10    17    18   ar
    11    18    19   ar
    12    18    10    1
    13    10    11    2
    14    10    12   am
    15    12     8    1
    16     8     9    2
    17     8     1    1
    18     1     5    1
    19     1     2    1
    20     2     3    1
    21     3     6    1
    22     4     5    1
    23     4     6    1
    24    25    26    1
    25    25    32    1
    26    25     6    1
    27    26    31   ar
    28    26    27   ar
    29    27    28   ar
    30    28    29   ar
    31    29    30   ar
    32    30    31   ar
    33    32    37   ar
    34    32    33   ar
    35    33    34   ar
    36    34    35   ar
    37    35    36   ar
    38    36    37   ar
    39    12    13    1
    40     6     7    1
#	Name:			ZINC10786945
#	Creating user name:	trannguyen
#	Creation time:		Thu Dec  1 16:45:04 2022


#	Modifying user name:	trannguyen
#	Modification time:	Thu Dec  1 16:45:04 2022

@<TRIPOS>MOLECULE
ZINC10786945
 27 29 0 0 0
SMALL
GASTEIGER

@<TRIPOS>ATOM
      1 C          -1.0727   60.1578   73.7350 C.ar    1  UNL1        0.1707
      2 N          -2.3823   60.2395   73.6873 N.ar    1  UNL1       -0.1279
      3 N          -2.8841   59.9285   74.8286 N.ar    1  UNL1       -0.1217
      4 C          -1.9264   59.6228   75.6757 C.ar    1  UNL1        0.1981
      5 N          -0.7394   59.7540   75.0091 N.ar    1  UNL1       -0.2659
      6 C           2.5831   61.2627   69.4307 C.3     1  UNL1        0.0310
      7 C           1.6254   60.9733   70.5576 C.ar    1  UNL1       -0.0218
      8 C           0.8154   61.9815   71.0493 C.ar    1  UNL1       -0.0042
      9 C          -0.0631   61.7234   72.0811 C.ar    1  UNL1        0.0027
     10 C          -0.1337   60.4416   72.6293 C.ar    1  UNL1        0.0363
     11 C           0.6904   59.4304   72.1325 C.ar    1  UNL1        0.0027
     12 C           1.5605   59.7006   71.0965 C.ar    1  UNL1       -0.0042
     13 C           0.5487   59.5300   75.5183 C.ar    1  UNL1        0.1041
     14 C           1.2731   58.4195   75.1117 C.ar    1  UNL1        0.0576
     15 C           2.5433   58.1978   75.6204 C.ar    1  UNL1        0.1404
     16 C           3.0945   59.0920   76.5266 C.ar    1  UNL1        0.0401
     17 C           2.3769   60.2026   76.9290 C.ar    1  UNL1        0.0415
     18 C           1.1046   60.4258   76.4280 C.ar    1  UNL1        0.1549
     19 O           0.3988   61.5188   76.8249 O.3     1  UNL1       -0.4700
     20 C           0.6300   61.9933   78.1528 C.3     1  UNL1        0.2525
     21 O           3.2519   57.1063   75.2265 O.3     1  UNL1       -0.4714
     22 C           4.5947   56.9977   75.7034 C.3     1  UNL1        0.2525
     23 S          -2.1334   59.1351   77.3562 S.3     1  UNL1       -0.0607
     24 C          -1.8912   57.3484   77.1970 C.3     1  UNL1        0.1455
     25 C          -1.9532   56.7001   78.5814 C.3     1  UNL1        0.0286
     26 C          -2.9491   56.7840   76.3431 C.1     1  UNL1        0.0836
     27 N          -3.7654   56.3485   75.6840 N.1     1  UNL1       -0.1950
@<TRIPOS>BOND
     1     6     7    1
     2     7    12   ar
     3     7     8   ar
     4     8     9   ar
     5     9    10   ar
     6    10    11   ar
     7    10     1    1
     8    11    12   ar
     9     1     5   ar
    10     1     2   ar
    11     2     3   ar
    12     3     4   ar
    13     4     5   ar
    14     4    23    1
    15     5    13    1
    16    13    18   ar
    17    13    14   ar
    18    14    15   ar
    19    15    16   ar
    20    15    21    1
    21    16    17   ar
    22    17    18   ar
    23    18    19    1
    24    19    20    1
    25    21    22    1
    26    23    24    1
    27    24    25    1
    28    24    26    1
    29    26    27    3
#	Name:			ZINC10816288
#	Creating user name:	trannguyen
#	Creation time:		Thu Dec  1 16:45:04 2022


#	Modifying user name:	trannguyen
#	Modification time:	Thu Dec  1 16:45:04 2022

@<TRIPOS>MOLECULE
ZINC10816288
 31 33 0 0 0
SMALL
GASTEIGER

@<TRIPOS>ATOM
      1 N           1.4540   62.2189   70.6130 N.am    1  UNL1       -0.2290
      2 C           0.1285   62.3419   70.8239 C.2     1  UNL1        0.2545
      3 O          -0.4925   63.2399   70.2863 O.2     1  UNL1       -0.2695
      4 C           2.1092   63.1141   69.7845 C.ar    1  UNL1        0.1692
      5 N           2.1786   64.4212   69.8766 N.ar    1  UNL1       -0.2237
      6 C           2.8616   65.1771   68.9878 C.ar    1  UNL1        0.0893
      7 C           3.0137   66.5830   68.9733 C.ar    1  UNL1        0.0202
      8 C           3.7389   67.1981   68.0018 C.ar    1  UNL1        0.0077
      9 C           4.3594   66.4738   66.9854 C.ar    1  UNL1        0.0258
     10 C           4.2327   65.0901   66.9660 C.ar    1  UNL1        0.0142
     11 C           3.5009   64.4673   67.9457 C.ar    1  UNL1        0.0502
     12 S           3.0762   62.7830   68.3185 S.2     1  UNL1       -0.0511
     13 S           5.2919   67.3021   65.7408 S.3     1  UNL1       -0.1127
     14 C           4.2031   68.6482   65.1994 C.3     1  UNL1        0.0742
     15 C          -0.5640   61.3957   71.6996 C.2     1  UNL1        0.0583
     16 C          -1.3501   61.8507   72.6965 C.2     1  UNL1        0.0047
     17 C          -2.0466   60.8990   73.5772 C.ar    1  UNL1        0.0002
     18 C          -3.4423   60.8128   73.5550 C.ar    1  UNL1        0.0017
     19 C          -4.0872   59.9154   74.3797 C.ar    1  UNL1        0.0241
     20 C          -3.3575   59.1087   75.2354 C.ar    1  UNL1        0.1429
     21 C          -1.9763   59.1919   75.2671 C.ar    1  UNL1        0.0241
     22 C          -1.3165   60.0805   74.4447 C.ar    1  UNL1        0.0017
     23 N          -4.0580   58.1524   76.1219 N.pl3   1  UNL1        0.0577
     24 O          -4.9496   57.4514   75.6779 O.2     1  UNL1       -0.1261
     25 O          -3.7429   58.0665   77.2953 O.2     1  UNL1       -0.1261
     26 C           2.2015   61.1379   71.2604 C.3     1  UNL1        0.1610
     27 C           2.4018   59.9909   70.2678 C.3     1  UNL1        0.1281
     28 C           1.6790   58.1684   71.6886 C.3     1  UNL1        0.1675
     29 C           3.4572   57.8196   70.0827 C.3     1  UNL1        0.1675
     30 N           2.8363   58.7887   71.0100 N.4     1  UNL1        0.2863
     31 H           3.5238   59.0630   71.7117 H       1  UNL1        0.2073
@<TRIPOS>UNITY_ATOM_ATTR
30 1
charge 1
@<TRIPOS>BOND
     1    28    30    1
     2    29    30    1
     3    27    26    1
     4    27    30    1
     5    26     1    1
     6     1     4    1
     7     1     2   am
     8     4    12   ar
     9     4     5   ar
    10     5     6   ar
    11     6    11   ar
    12     6     7   ar
    13     7     8   ar
    14     8     9   ar
    15     9    10   ar
    16     9    13    1
    17    10    11   ar
    18    11    12   ar
    19    13    14    1
    20     2     3    2
    21     2    15    1
    22    15    16    2
    23    16    17    1
    24    17    22   ar
    25    17    18   ar
    26    18    19   ar
    27    19    20   ar
    28    20    21   ar
    29    20    23    1
    30    21    22   ar
    31    23    24    2
    32    23    25    2
    33    30    31    1
#	Name:			ZINC11298007
#	Creating user name:	trannguyen
#	Creation time:		Thu Dec  1 16:45:04 2022


#	Modifying user name:	trannguyen
#	Modification time:	Thu Dec  1 16:45:04 2022

@<TRIPOS>MOLECULE
ZINC11298007
 38 40 0 0 0
SMALL
GASTEIGER

@<TRIPOS>ATOM
      1 C           2.1778   61.9750   70.3669 C.ar    1  UNL1        0.1724
      2 C           1.2314   62.9816   70.5103 C.ar    1  UNL1        0.0400
      3 C           0.0126   62.7086   71.0897 C.ar    1  UNL1        0.0033
      4 C          -0.2750   61.4122   71.5369 C.ar    1  UNL1        0.0040
      5 C           0.6790   60.3967   71.3871 C.ar    1  UNL1        0.0401
      6 C           1.8997   60.6817   70.8093 C.ar    1  UNL1        0.1722
      7 C          -1.5717   61.1179   72.1548 C.2     1  UNL1        0.0135
      8 C          -1.6372   60.7792   73.4745 C.2     1  UNL1        0.1043
      9 C          -2.9507   60.6429   74.1382 C.ar    1  UNL1        0.1776
     10 N          -3.3732   59.4455   74.5405 N.ar    1  UNL1       -0.1941
     11 C          -4.5544   59.3243   75.1371 C.ar    1  UNL1        0.2174
     12 N          -5.3144   60.3976   75.3325 N.ar    1  UNL1       -0.1811
     13 C          -4.8939   61.5932   74.9315 C.ar    1  UNL1        0.2240
     14 N          -3.7105   61.7179   74.3395 N.ar    1  UNL1       -0.1937
     15 N          -4.9927   58.0834   75.5537 N.pl3   1  UNL1       -0.3273
     16 H          -4.4302   57.2886   75.4090 H       1  UNL1        0.1452
     17 H          -5.8679   57.9933   75.9955 H       1  UNL1        0.1452
     18 N          -5.6844   62.7063   75.1348 N.pl3   1  UNL1       -0.2746
     19 C          -7.0856   62.6977   74.7072 C.3     1  UNL1        0.1151
     20 C          -5.1222   63.8964   75.7781 C.3     1  UNL1        0.1151
     21 C          -0.4331   60.5558   74.2169 C.1     1  UNL1        0.1035
     22 N           0.5220   60.3785   74.8059 N.1     1  UNL1       -0.1907
     23 O           3.3776   62.2508   69.7937 O.3     1  UNL1       -0.4684
     24 C           3.4280   63.3626   68.8972 C.3     1  UNL1        0.2526
     25 C           4.6103   64.2612   69.2653 C.3     1  UNL1        0.2525
     26 O           4.1486   65.5991   69.4622 O.3     1  UNL1       -0.4714
     27 C           4.1547   68.0879   66.1686 C.ar    1  UNL1        0.1388
     28 C           3.2726   68.3219   67.2131 C.ar    1  UNL1        0.0400
     29 C           3.2709   67.4894   68.3153 C.ar    1  UNL1        0.0400
     30 C           4.1504   66.4188   68.3772 C.ar    1  UNL1        0.1389
     31 C           5.0358   66.1876   67.3348 C.ar    1  UNL1        0.0400
     32 C           5.0346   67.0176   66.2307 C.ar    1  UNL1        0.0400
     33 O           4.1565   68.9075   65.0836 O.3     1  UNL1       -0.4755
     34 C           4.5565   68.8867   62.7003 C.3     1  UNL1        0.0512
     35 C           5.1559   68.6674   64.0908 C.3     1  UNL1        0.2055
     36 O           2.8296   59.6997   70.6660 O.3     1  UNL1       -0.4724
     37 C           2.3837   58.3535   70.8411 C.3     1  UNL1        0.2057
     38 C           3.4338   57.3915   70.2815 C.3     1  UNL1        0.0512
@<TRIPOS>BOND
     1    34    35    1
     2    35    33    1
     3    33    27    1
     4    27    32   ar
     5    27    28   ar
     6    28    29   ar
     7    29    30   ar
     8    30    31   ar
     9    30    26    1
    10    31    32   ar
    11    26    25    1
    12    25    24    1
    13    24    23    1
    14    23     1    1
    15     1     6   ar
    16     1     2   ar
    17     2     3   ar
    18     3     4   ar
    19     4     5   ar
    20     4     7    1
    21     5     6   ar
    22     6    36    1
    23    36    37    1
    24    37    38    1
    25     7     8    2
    26     8    21    1
    27     8     9    1
    28    21    22    3
    29     9    14   ar
    30     9    10   ar
    31    10    11   ar
    32    11    12   ar
    33    11    15    1
    34    12    13   ar
    35    13    14   ar
    36    13    18    1
    37    18    19    1
    38    18    20    1
    39    15    16    1
    40    15    17    1
#	Name:			ZINC11703637
#	Creating user name:	trannguyen
#	Creation time:		Thu Dec  1 16:45:04 2022


#	Modifying user name:	trannguyen
#	Modification time:	Thu Dec  1 16:45:04 2022

@<TRIPOS>MOLECULE
ZINC11703637
 27 29 0 0 0
SMALL
GASTEIGER

@<TRIPOS>ATOM
      1 C          -4.4405   61.1952   75.3026 C.ar    1  UNL1        0.1724
      2 N          -3.5088   61.6642   74.4957 N.ar    1  UNL1       -0.2269
      3 C          -2.7009   60.8539   73.8408 C.ar    1  UNL1        0.0788
      4 C          -2.8505   59.5171   74.0097 C.ar    1  UNL1        0.0537
      5 S          -4.2090   59.4792   75.1698 S.2     1  UNL1       -0.0506
      6 N          -5.3707   61.8955   76.0642 N.am    1  UNL1       -0.2175
      7 C          -5.2220   61.9779   77.4012 C.2     1  UNL1        0.2350
      8 O          -4.2307   61.5213   77.9303 O.2     1  UNL1       -0.2741
      9 C          -6.2873   62.6372   78.2386 C.3     1  UNL1        0.0956
     10 C          -9.7913   64.4042   73.5414 C.3     1  UNL1        0.0310
     11 C          -8.6173   63.7380   74.2114 C.ar    1  UNL1       -0.0224
     12 C          -7.4947   64.4787   74.5327 C.ar    1  UNL1       -0.0073
     13 C          -6.4172   63.8710   75.1468 C.ar    1  UNL1       -0.0084
     14 C          -6.4619   62.5147   75.4415 C.ar    1  UNL1        0.0519
     15 C          -7.5883   61.7725   75.1124 C.ar    1  UNL1       -0.0084
     16 C          -8.6652   62.3874   74.5040 C.ar    1  UNL1       -0.0073
     17 C          -7.6385   60.2990   75.4243 C.3     1  UNL1        0.0323
     18 C          -5.1943   64.6791   75.4971 C.3     1  UNL1        0.0323
     19 C          -1.6396   61.4008   72.9212 C.3     1  UNL1        0.1113
     20 S          -0.4351   60.1018   72.5501 S.3     1  UNL1       -0.0694
     21 C           0.7834   61.0483   71.6992 C.ar    1  UNL1        0.1900
     22 N           0.6635   62.3449   71.2887 N.ar    1  UNL1       -0.3197
     23 C           1.8508   62.6535   70.6843 C.ar    1  UNL1        0.1408
     24 N           2.6032   61.5913   70.7426 N.ar    1  UNL1       -0.1330
     25 N           1.9775   60.6395   71.3378 N.ar    1  UNL1       -0.1227
     26 C           2.2204   63.9768   70.0652 C.3     1  UNL1        0.0736
     27 H          -0.1160   62.9352   71.4038 H       1  UNL1        0.1691
@<TRIPOS>BOND
     1    10    11    1
     2    11    16   ar
     3    11    12   ar
     4    12    13   ar
     5    13    14   ar
     6    13    18    1
     7    14    15   ar
     8    14     6    1
     9    15    16   ar
    10    15    17    1
    11     6     1    1
    12     6     7   am
    13     1     5   ar
    14     1     2   ar
    15     2     3   ar
    16     3     4   ar
    17     3    19    1
    18     4     5   ar
    19    19    20    1
    20    20    21    1
    21    21    25   ar
    22    21    22   ar
    23    22    23   ar
    24    23    24   ar
    25    23    26    1
    26    24    25   ar
    27     7     8    2
    28     7     9    1
    29    22    27    1
#	Name:			ZINC11784525
#	Creating user name:	trannguyen
#	Creation time:		Thu Dec  1 16:45:04 2022


#	Modifying user name:	trannguyen
#	Modification time:	Thu Dec  1 16:45:04 2022

@<TRIPOS>MOLECULE
ZINC11784525
 39 43 0 0 0
SMALL
GASTEIGER

@<TRIPOS>ATOM
      1 C          -1.1604   60.8815   73.7202 C.3     1  UNL1        0.1335
      2 C          -0.8232   61.1028   72.2246 C.3     1  UNL1        0.0820
      3 C           0.7277   61.1263   72.2531 C.3     1  UNL1        0.1201
      4 C           1.0711   60.0899   73.3437 C.3     1  UNL1        0.1172
      5 N          -0.1228   59.9487   74.1966 N.4     1  UNL1        0.2794
      6 H          -0.4731   58.9921   74.1447 H       1  UNL1        0.2070
      7 N          -2.6845   59.1662   74.6440 N.am    1  UNL1       -0.3014
      8 C          -2.5231   60.2548   73.8660 C.2     1  UNL1        0.2720
      9 O          -3.4746   60.7302   73.2834 O.2     1  UNL1       -0.2690
     10 H          -1.9121   58.7803   75.1170 H       1  UNL1        0.1496
     11 C          -3.8549   57.0845   75.1714 C.3     1  UNL1        0.0213
     12 C          -4.0093   58.5570   74.7858 C.3     1  UNL1        0.0719
     13 C          -4.7937   59.2901   75.8758 C.3     1  UNL1        0.0213
     14 C           0.2239   60.2433   75.6115 C.3     1  UNL1        0.1143
     15 C           1.4050   59.3684   76.0364 C.3     1  UNL1        0.0997
     16 C           0.8978   58.0202   76.4791 C.ar    1  UNL1       -0.0127
     17 C          -0.2893   57.9245   77.1809 C.ar    1  UNL1       -0.0038
     18 C          -0.7517   56.6883   77.5919 C.ar    1  UNL1       -0.0003
     19 C          -0.0324   55.5467   77.2916 C.ar    1  UNL1       -0.0000
     20 C           1.1518   55.6417   76.5849 C.ar    1  UNL1       -0.0003
     21 C           1.6168   56.8784   76.1784 C.ar    1  UNL1       -0.0038
     22 C           2.1352   60.0297   77.1768 C.ar    1  UNL1       -0.0127
     23 C           1.6516   61.2063   77.7176 C.ar    1  UNL1       -0.0038
     24 C           2.3192   61.8108   78.7663 C.ar    1  UNL1       -0.0003
     25 C           3.4753   61.2432   79.2685 C.ar    1  UNL1       -0.0000
     26 C           3.9615   60.0691   78.7246 C.ar    1  UNL1       -0.0003
     27 C           3.2918   59.4625   77.6784 C.ar    1  UNL1       -0.0038
     28 S           1.4050   60.6197   70.6529 S.3     1  UNL1       -0.0228
     29 C           2.2581   62.0939   70.2012 C.ar    1  UNL1        0.3183
     30 N           1.6604   63.2806   69.8828 N.ar    1  UNL1       -0.2306
     31 C           2.6701   64.1834   69.5915 C.ar    1  UNL1        0.1827
     32 C           2.6871   65.5169   69.2122 C.ar    1  UNL1        0.0458
     33 C           3.8912   66.1509   68.9842 C.ar    1  UNL1        0.0039
     34 C           5.0864   65.4630   69.1322 C.ar    1  UNL1        0.0039
     35 C           5.0884   64.1382   69.5073 C.ar    1  UNL1        0.0458
     36 C           3.8775   63.4818   69.7424 C.ar    1  UNL1        0.1827
     37 N           3.5602   62.2143   70.1150 N.ar    1  UNL1       -0.2306
     38 H           0.6928   63.4606   69.8639 H       1  UNL1        0.3119
     39 H           4.2093   61.4959   70.2930 H       1  UNL1        0.3119
@<TRIPOS>UNITY_ATOM_ATTR
5 1
charge 1
37 1
charge 1
@<TRIPOS>BOND
     1    11    12    1
     2    12    13    1
     3    12     7    1
     4     7     8   am
     5     8     9    2
     6     8     1    1
     7     1     2    1
     8     1     5    1
     9     2     3    1
    10     3     4    1
    11     3    28    1
    12     4     5    1
    13    14    15    1
    14    14     5    1
    15    15    16    1
    16    15    22    1
    17    16    21   ar
    18    16    17   ar
    19    17    18   ar
    20    18    19   ar
    21    19    20   ar
    22    20    21   ar
    23    22    27   ar
    24    22    23   ar
    25    23    24   ar
    26    24    25   ar
    27    25    26   ar
    28    26    27   ar
    29    28    29    1
    30    29    37   ar
    31    29    30   ar
    32    30    31   ar
    33    31    36   ar
    34    31    32   ar
    35    32    33   ar
    36    33    34   ar
    37    34    35   ar
    38    35    36   ar
    39    36    37   ar
    40     7    10    1
    41    30    38    1
    42    37    39    1
    43     5     6    1
#	Name:			ZINC11788454
#	Creating user name:	trannguyen
#	Creation time:		Thu Dec  1 16:45:04 2022


#	Modifying user name:	trannguyen
#	Modification time:	Thu Dec  1 16:45:04 2022

@<TRIPOS>MOLECULE
ZINC11788454
 39 43 0 0 0
SMALL
GASTEIGER

@<TRIPOS>ATOM
      1 C          -0.4921   60.1947   74.1663 C.3     1  UNL1        0.0604
      2 C           0.6522   60.3216   73.1585 C.3     1  UNL1        0.0616
      3 C           0.5145   61.6396   72.3913 C.3     1  UNL1        0.0668
      4 C           1.6259   61.7327   71.3434 C.3     1  UNL1        0.1059
      5 C           1.7026   59.3203   71.1268 C.3     1  UNL1        0.1059
      6 C           0.5935   59.1553   72.1682 C.3     1  UNL1        0.0668
      7 N           1.4990   60.5954   70.4072 N.4     1  UNL1        0.2804
      8 H           0.5616   60.6016   70.0051 H       1  UNL1        0.2071
      9 C           2.4903   60.7248   69.3192 C.3     1  UNL1        0.1499
     10 C           2.9194   62.1653   69.2107 C.ar    1  UNL1        0.0897
     11 C           2.0896   63.2052   69.0317 C.ar    1  UNL1        0.0198
     12 C           2.9189   64.4119   68.9858 C.ar    1  UNL1        0.0169
     13 C           2.6454   65.7720   68.8276 C.ar    1  UNL1        0.0015
     14 C           3.6715   66.6741   68.8234 C.ar    1  UNL1        0.0001
     15 C           4.9844   66.2494   68.9752 C.ar    1  UNL1        0.0015
     16 C           5.2768   64.9125   69.1323 C.ar    1  UNL1        0.0170
     17 C           4.2475   63.9764   69.1400 C.ar    1  UNL1        0.0565
     18 N           4.2131   62.6066   69.2742 N.ar    1  UNL1       -0.3519
     19 H           5.0018   62.0304   69.3975 H       1  UNL1        0.1658
     20 N          -0.0030   59.6049   75.4303 N.4     1  UNL1        0.2773
     21 H          -0.2551   58.6169   75.4541 H       1  UNL1        0.2069
     22 C          -0.6289   60.2880   76.5820 C.3     1  UNL1        0.1381
     23 C          -1.3066   59.2392   77.4660 C.3     1  UNL1        0.2028
     24 C           0.0020   60.5169   79.0153 C.3     1  UNL1        0.1744
     25 O          -0.8946   59.4211   78.8221 O.3     1  UNL1       -0.3449
     26 C           1.4679   59.7272   75.5089 C.3     1  UNL1        0.1342
     27 C           2.0098   58.5505   76.2789 C.ar    1  UNL1        0.0518
     28 C           1.6419   57.2579   75.9368 C.ar    1  UNL1        0.0046
     29 C           2.1608   56.2066   76.6765 C.ar    1  UNL1        0.0206
     30 C           3.0308   56.4790   77.7155 C.ar    1  UNL1        0.0989
     31 N           3.3629   57.7208   78.0091 N.ar    1  UNL1       -0.2424
     32 C           2.8845   58.7455   77.3307 C.ar    1  UNL1        0.1003
     33 C          -1.5791   59.2843   73.5916 C.3     1  UNL1        0.0813
     34 C          -2.9261   59.7251   74.1040 C.ar    1  UNL1       -0.0165
     35 C          -3.3250   61.0405   73.9569 C.ar    1  UNL1       -0.0041
     36 C          -4.5627   61.4435   74.4223 C.ar    1  UNL1       -0.0003
     37 C          -5.3970   60.5337   75.0444 C.ar    1  UNL1       -0.0000
     38 C          -4.9958   59.2196   75.1965 C.ar    1  UNL1       -0.0003
     39 C          -3.7604   58.8153   74.7262 C.ar    1  UNL1       -0.0041
@<TRIPOS>UNITY_ATOM_ATTR
7 1
charge 1
20 1
charge 1
@<TRIPOS>BOND
     1    24    25    1
     2    25    23    1
     3    23    22    1
     4    22    20    1
     5    26    27    1
     6    26    20    1
     7    27    32   ar
     8    27    28   ar
     9    28    29   ar
    10    29    30   ar
    11    30    31   ar
    12    31    32   ar
    13     1    33    1
    14     1     2    1
    15     1    20    1
    16    33    34    1
    17    34    39   ar
    18    34    35   ar
    19    35    36   ar
    20    36    37   ar
    21    37    38   ar
    22    38    39   ar
    23     2     6    1
    24     2     3    1
    25     3     4    1
    26     4     7    1
    27     5     6    1
    28     5     7    1
    29     9    10    1
    30     9     7    1
    31    10    18   ar
    32    10    11   ar
    33    11    12   ar
    34    12    17   ar
    35    12    13   ar
    36    13    14   ar
    37    14    15   ar
    38    15    16   ar
    39    16    17   ar
    40    17    18   ar
    41    18    19    1
    42    20    21    1
    43     7     8    1
#	Name:			ZINC11813511
#	Creating user name:	trannguyen
#	Creation time:		Thu Dec  1 16:45:04 2022


#	Modifying user name:	trannguyen
#	Modification time:	Thu Dec  1 16:45:04 2022

@<TRIPOS>MOLECULE
ZINC11813511
 30 34 0 0 0
SMALL
GASTEIGER

@<TRIPOS>ATOM
      1 N          -2.1669   59.7949   74.5075 N.ar    1  UNL1       -0.2283
      2 C          -1.1237   59.8609   75.3754 C.ar    1  UNL1        0.1033
      3 C           0.0127   59.9534   74.6510 C.ar    1  UNL1        0.0711
      4 C          -0.3419   59.9528   73.2874 C.ar    1  UNL1        0.1044
      5 N          -1.6522   59.8543   73.2061 N.ar    1  UNL1       -0.1652
      6 C           0.5980   60.0414   72.1426 C.ar    1  UNL1        0.0225
      7 C           1.3079   58.9141   71.7336 C.ar    1  UNL1        0.0049
      8 C           2.1775   58.9960   70.6654 C.ar    1  UNL1        0.0402
      9 C           2.3521   60.1995   69.9989 C.ar    1  UNL1        0.1764
     10 C           1.6489   61.3314   70.4076 C.ar    1  UNL1        0.1765
     11 C           0.7762   61.2531   71.4782 C.ar    1  UNL1        0.0417
     12 O           1.9942   62.3752   69.5982 O.3     1  UNL1       -0.4346
     13 C           3.2171   61.9731   68.9534 C.3     1  UNL1        0.4294
     14 O           3.1373   60.5358   68.9338 O.3     1  UNL1       -0.4346
     15 C          -6.1927   59.4724   75.5369 C.ar    1  UNL1        0.0001
     16 C          -5.2792   58.5588   76.0301 C.ar    1  UNL1        0.0015
     17 C          -3.9445   58.6631   75.6908 C.ar    1  UNL1        0.0191
     18 C          -3.5202   59.6865   74.8536 C.ar    1  UNL1        0.0828
     19 C          -4.4391   60.6056   74.3647 C.ar    1  UNL1        0.0191
     20 C          -5.7734   60.4926   74.7030 C.ar    1  UNL1        0.0015
     21 C           1.4118   60.0447   75.2035 C.3     1  UNL1        0.1358
     22 C           1.8034   59.4770   77.5331 C.3     1  UNL1        0.1057
     23 C           2.7892   58.5304   78.2428 C.3     1  UNL1        0.0669
     24 C           3.1564   57.4636   77.1858 C.3     1  UNL1        0.0637
     25 C           2.8317   58.1750   75.8483 C.3     1  UNL1        0.0857
     26 N           1.6215   58.9352   76.1815 N.4     1  UNL1        0.2770
     27 H           0.8002   58.3316   76.1416 H       1  UNL1        0.2069
     28 C           2.5531   57.1512   74.7459 C.3     1  UNL1        0.1927
     29 O           3.4433   56.0425   74.8894 O.3     1  UNL1       -0.3770
     30 H           4.3598   56.3525   74.8187 H       1  UNL1        0.2107
@<TRIPOS>UNITY_ATOM_ATTR
26 1
charge 1
@<TRIPOS>BOND
     1    15    20   ar
     2    15    16   ar
     3    16    17   ar
     4    17    18   ar
     5    18    19   ar
     6    18     1    1
     7    19    20   ar
     8     1     5   ar
     9     1     2   ar
    10     2     3   ar
    11     3     4   ar
    12     3    21    1
    13     4     5   ar
    14     4     6    1
    15     6    11   ar
    16     6     7   ar
    17     7     8   ar
    18     8     9   ar
    19     9    14    1
    20     9    10   ar
    21    10    11   ar
    22    10    12    1
    23    12    13    1
    24    13    14    1
    25    21    26    1
    26    22    23    1
    27    22    26    1
    28    23    24    1
    29    24    25    1
    30    25    28    1
    31    25    26    1
    32    28    29    1
    33    29    30    1
    34    26    27    1
#	Name:			ZINC11850996
#	Creating user name:	trannguyen
#	Creation time:		Thu Dec  1 16:45:04 2022


#	Modifying user name:	trannguyen
#	Modification time:	Thu Dec  1 16:45:04 2022

@<TRIPOS>MOLECULE
ZINC11850996
 18 19 0 0 0
SMALL
GASTEIGER

@<TRIPOS>ATOM
      1 C          -3.8726   54.5653   76.2740 C.3     1  UNL1        0.0318
      2 C          -3.8064   53.0657   76.1407 C.ar    1  UNL1       -0.0103
      3 C          -2.7740   52.4806   75.4313 C.ar    1  UNL1        0.0382
      4 C          -2.7131   51.1015   75.3097 C.ar    1  UNL1        0.1407
      5 C          -3.6908   50.3112   75.8989 C.ar    1  UNL1        0.0631
      6 C          -4.7172   50.8991   76.6115 C.ar    1  UNL1       -0.0071
      7 C          -4.7785   52.2766   76.7285 C.ar    1  UNL1        0.0496
      8 CL         -6.0724   53.0146   77.6200 Cl      1  UNL1       -0.0829
      9 C          -5.7742   50.0404   77.2569 C.3     1  UNL1        0.0319
     10 O          -1.7004   50.5127   74.6186 O.3     1  UNL1       -0.4483
     11 C          -0.9423   51.3521   73.7428 C.3     1  UNL1        0.3612
     12 O          -0.5884   52.5476   74.4485 O.3     1  UNL1       -0.3108
     13 C          -1.7215   53.3509   74.7920 C.3     1  UNL1        0.1753
     14 C          -3.6282   48.8114   75.7664 C.3     1  UNL1        0.1296
     15 N          -3.9916   48.4356   74.3887 N.4     1  UNL1        0.2359
     16 H          -4.9361   48.7626   74.1850 H       1  UNL1        0.2008
     17 H          -3.9549   47.4209   74.2920 H       1  UNL1        0.2008
     18 H          -3.3355   48.8633   73.7352 H       1  UNL1        0.2008
@<TRIPOS>UNITY_ATOM_ATTR
15 1
charge 1
@<TRIPOS>BOND
     1     1     2    1
     2     2     7   ar
     3     2     3   ar
     4     3    13    1
     5     3     4   ar
     6     4     5   ar
     7     4    10    1
     8     5     6   ar
     9     5    14    1
    10     6     7   ar
    11     6     9    1
    12     7     8    1
    13    14    15    1
    14    10    11    1
    15    11    12    1
    16    12    13    1
    17    15    16    1
    18    15    17    1
    19    15    18    1
#	Name:			ZINC11851222
#	Creating user name:	trannguyen
#	Creation time:		Thu Dec  1 16:45:04 2022


#	Modifying user name:	trannguyen
#	Modification time:	Thu Dec  1 16:45:04 2022

@<TRIPOS>MOLECULE
ZINC11851222
 20 21 0 0 0
SMALL
GASTEIGER

@<TRIPOS>ATOM
      1 C           2.3708   63.7125   70.4075 C.3     1  UNL1        0.0310
      2 C           2.8969   64.3984   69.1731 C.ar    1  UNL1       -0.0221
      3 C           3.3214   63.6330   68.0895 C.ar    1  UNL1       -0.0070
      4 C           3.7964   64.2217   66.9576 C.ar    1  UNL1       -0.0045
      5 C           3.8732   65.6229   66.8795 C.ar    1  UNL1        0.0775
      6 C           3.4414   66.3991   67.9828 C.ar    1  UNL1        0.0132
      7 C           2.9517   65.7588   69.1315 C.ar    1  UNL1       -0.0031
      8 C           3.5126   67.8050   67.9031 C.ar    1  UNL1       -0.0184
      9 C           3.9975   68.3632   66.7591 C.ar    1  UNL1        0.0212
     10 C           4.4097   67.5406   65.7005 C.ar    1  UNL1        0.1065
     11 N           4.3406   66.2268   65.7813 N.ar    1  UNL1       -0.2395
     12 C           3.0640   68.6681   69.0542 C.3     1  UNL1        0.0311
     13 C           4.2491   63.3738   65.7970 C.3     1  UNL1        0.0326
     14 S           5.0343   68.2807   64.2285 S.3     1  UNL1       -0.0887
     15 C           3.4822   68.7945   63.4518 C.3     1  UNL1        0.1241
     16 C           3.4118   68.2310   62.0312 C.3     1  UNL1        0.1116
     17 N           2.0753   68.5021   61.4728 N.4     1  UNL1        0.2330
     18 H           1.3664   68.0589   62.0571 H       1  UNL1        0.2005
     19 H           2.0195   68.1260   60.5263 H       1  UNL1        0.2005
     20 H           1.9148   69.5091   61.4485 H       1  UNL1        0.2005
@<TRIPOS>UNITY_ATOM_ATTR
17 1
charge 1
@<TRIPOS>BOND
     1     1     2    1
     2     2     7   ar
     3     2     3   ar
     4     3     4   ar
     5     4     5   ar
     6     4    13    1
     7     5    11   ar
     8     5     6   ar
     9     6     7   ar
    10     6     8   ar
    11     8     9   ar
    12     8    12    1
    13     9    10   ar
    14    10    11   ar
    15    10    14    1
    16    14    15    1
    17    15    16    1
    18    16    17    1
    19    17    18    1
    20    17    19    1
    21    17    20    1
#	Name:			ZINC11880500
#	Creating user name:	trannguyen
#	Creation time:		Thu Dec  1 16:45:04 2022


#	Modifying user name:	trannguyen
#	Modification time:	Thu Dec  1 16:45:04 2022

@<TRIPOS>MOLECULE
ZINC11880500
 37 40 0 0 0
SMALL
GASTEIGER

@<TRIPOS>ATOM
      1 C           0.5605   61.5102   71.5214 C.ar    1  UNL1        0.0829
      2 C          -0.7128   62.0691   71.5046 C.ar    1  UNL1        0.0193
      3 C          -1.7064   61.5470   72.3026 C.ar    1  UNL1        0.0061
      4 C          -1.4326   60.4578   73.1335 C.ar    1  UNL1        0.0535
      5 C          -0.1509   59.9021   73.1519 C.ar    1  UNL1        0.0061
      6 C           0.8379   60.4293   72.3514 C.ar    1  UNL1        0.0193
      7 C           2.6298   63.2691   69.2353 C.ar    1  UNL1        0.0912
      8 C           3.5333   62.3403   69.7756 C.ar    1  UNL1        0.1367
      9 N           2.8978   61.6111   70.6566 N.ar    1  UNL1       -0.1621
     10 N           1.5651   62.0391   70.7059 N.ar    1  UNL1       -0.2268
     11 C           1.4230   63.0656   69.8226 C.ar    1  UNL1        0.1166
     12 C           3.8738   65.1644   68.4932 C.2     1  UNL1        0.2493
     13 O           4.4782   65.1618   69.5481 O.2     1  UNL1       -0.2698
     14 N           2.9230   64.2385   68.2591 N.am    1  UNL1       -0.2779
     15 H           2.4336   64.2405   67.4049 H       1  UNL1        0.1553
     16 C           5.0715   69.1289   64.4980 C.3     1  UNL1        0.0310
     17 C           4.7583   68.0911   65.5447 C.ar    1  UNL1       -0.0222
     18 C           5.4737   66.9070   65.5763 C.ar    1  UNL1       -0.0041
     19 C           5.1916   65.9524   66.5312 C.ar    1  UNL1        0.0039
     20 C           4.1819   66.1832   67.4673 C.ar    1  UNL1        0.0497
     21 C           3.4610   67.3774   67.4268 C.ar    1  UNL1       -0.0178
     22 C           3.7566   68.3260   66.4693 C.ar    1  UNL1       -0.0084
     23 C           2.3656   67.6327   68.4298 C.3     1  UNL1        0.0312
     24 C          -2.4955   59.8950   73.9901 C.2     1  UNL1        0.2459
     25 O          -2.5170   58.7029   74.2280 O.2     1  UNL1       -0.2701
     26 N          -3.4419   60.7027   74.5082 N.am    1  UNL1       -0.3005
     27 H          -3.4246   61.6680   74.3155 H       1  UNL1        0.1497
     28 C          -4.4964   60.1441   75.3580 C.3     1  UNL1        0.0962
     29 C          -4.5587   60.9243   76.6726 C.3     1  UNL1        0.0234
     30 C          -5.8420   60.2507   74.6375 C.3     1  UNL1        0.1465
     31 N          -6.3940   61.5941   74.8300 N.ar    1  UNL1       -0.2535
     32 C          -7.6796   61.8912   75.1124 C.ar    1  UNL1        0.0572
     33 C          -7.7796   63.2370   75.2125 C.ar    1  UNL1        0.0308
     34 C          -6.5116   63.7809   74.9832 C.ar    1  UNL1        0.0801
     35 N          -5.6791   62.7967   74.7593 N.ar    1  UNL1       -0.1739
     36 C          -6.1632   65.2470   74.9979 C.3     1  UNL1        0.0540
     37 C          -8.8028   60.9014   75.2861 C.3     1  UNL1        0.0517
@<TRIPOS>BOND
     1    16    17    1
     2    17    22   ar
     3    17    18   ar
     4    18    19   ar
     5    19    20   ar
     6    20    21   ar
     7    20    12    1
     8    21    22   ar
     9    21    23    1
    10    12    13    2
    11    12    14   am
    12    14     7    1
    13     7    11   ar
    14     7     8   ar
    15     8     9   ar
    16     9    10   ar
    17    10    11   ar
    18    10     1    1
    19     1     6   ar
    20     1     2   ar
    21     2     3   ar
    22     3     4   ar
    23     4     5   ar
    24     4    24    1
    25     5     6   ar
    26    24    25    2
    27    24    26   am
    28    26    28    1
    29    28    29    1
    30    28    30    1
    31    30    31    1
    32    31    35   ar
    33    31    32   ar
    34    32    33   ar
    35    32    37    1
    36    33    34   ar
    37    34    35   ar
    38    34    36    1
    39    14    15    1
    40    26    27    1
#	Name:			ZINC11998057
#	Creating user name:	trannguyen
#	Creation time:		Thu Dec  1 16:45:04 2022


#	Modifying user name:	trannguyen
#	Modification time:	Thu Dec  1 16:45:04 2022

@<TRIPOS>MOLECULE
ZINC11998057
 41 45 0 0 0
SMALL
GASTEIGER

@<TRIPOS>ATOM
      1 C          -1.5328   60.4045   74.6965 C.3     1  UNL1        0.1390
      2 C          -1.7442   60.6469   73.1905 C.3     1  UNL1        0.1255
      3 C          -0.4499   60.1397   72.5143 C.3     1  UNL1        0.1152
      4 C           0.5847   60.1873   73.6666 C.3     1  UNL1        0.1617
      5 N          -0.2148   59.7720   74.8250 N.4     1  UNL1        0.2862
      6 H          -0.3024   58.7561   74.8507 H       1  UNL1        0.2076
      7 N          -3.7173   60.0062   75.7863 N.am    1  UNL1       -0.3014
      8 C          -2.6067   59.4887   75.2248 C.2     1  UNL1        0.2722
      9 O          -2.4716   58.2861   75.1448 O.2     1  UNL1       -0.2690
     10 H          -3.8270   60.9824   75.8513 H       1  UNL1        0.1496
     11 C          -4.7444   59.1394   77.8296 C.3     1  UNL1        0.0213
     12 C          -4.7614   59.1161   76.2999 C.3     1  UNL1        0.0719
     13 C          -6.1271   59.5887   75.7977 C.3     1  UNL1        0.0213
     14 N          -0.0536   61.0445   71.4186 N.4     1  UNL1        0.2581
     15 H          -0.8455   61.6367   71.1682 H       1  UNL1        0.2039
     16 H           0.2332   60.4861   70.6146 H       1  UNL1        0.2039
     17 C           1.0758   61.8946   71.8398 C.3     1  UNL1        0.1298
     18 C           1.9875   62.1236   70.6619 C.ar    1  UNL1        0.0356
     19 C           1.9147   61.2913   69.5598 C.ar    1  UNL1        0.0016
     20 C           2.7492   61.4990   68.4773 C.ar    1  UNL1        0.0030
     21 C           3.6589   62.5387   68.4942 C.ar    1  UNL1        0.0375
     22 C           3.7343   63.3748   69.5987 C.ar    1  UNL1        0.1452
     23 C           2.8911   63.1680   70.6815 C.ar    1  UNL1        0.0389
     24 O           4.6280   64.3983   69.6180 O.3     1  UNL1       -0.4535
     25 C           4.4050   65.4556   68.7942 C.ar    1  UNL1        0.1453
     26 C           5.1826   65.6274   67.6578 C.ar    1  UNL1        0.0375
     27 C           4.9497   66.6997   66.8187 C.ar    1  UNL1        0.0031
     28 C           3.9511   67.6084   67.1169 C.ar    1  UNL1        0.0002
     29 C           3.1785   67.4427   68.2516 C.ar    1  UNL1        0.0031
     30 C           3.4032   66.3687   69.0908 C.ar    1  UNL1        0.0375
     31 C           0.4418   60.1989   76.0972 C.3     1  UNL1        0.1333
     32 C           1.2137   59.0461   76.6856 C.ar    1  UNL1        0.0327
     33 C           0.8951   57.7663   76.3486 C.ar    1  UNL1        0.0014
     34 C           1.5976   56.6878   76.8822 C.ar    1  UNL1       -0.0001
     35 C           2.6230   56.8827   77.7561 C.ar    1  UNL1       -0.0000
     36 C           2.9809   58.1895   78.1276 C.ar    1  UNL1       -0.0001
     37 C           2.2696   59.2869   77.5807 C.ar    1  UNL1        0.0015
     38 C           2.6315   60.5944   77.9477 C.ar    1  UNL1       -0.0001
     39 C           3.6602   60.7894   78.8170 C.ar    1  UNL1       -0.0000
     40 C           4.3633   59.7106   79.3506 C.ar    1  UNL1       -0.0000
     41 C           4.0340   58.4304   79.0266 C.ar    1  UNL1       -0.0000
@<TRIPOS>UNITY_ATOM_ATTR
5 1
charge 1
14 1
charge 1
@<TRIPOS>BOND
     1    11    12    1
     2    12    13    1
     3    12     7    1
     4     7     8   am
     5     8     9    2
     6     8     1    1
     7     1     2    1
     8     1     5    1
     9     2     3    1
    10     3     4    1
    11     3    14    1
    12     4     5    1
    13    31    32    1
    14    31     5    1
    15    32    37   ar
    16    32    33   ar
    17    33    34   ar
    18    34    35   ar
    19    35    36   ar
    20    36    41   ar
    21    36    37   ar
    22    37    38   ar
    23    38    39   ar
    24    39    40   ar
    25    40    41   ar
    26    17    18    1
    27    17    14    1
    28    18    23   ar
    29    18    19   ar
    30    19    20   ar
    31    20    21   ar
    32    21    22   ar
    33    22    23   ar
    34    22    24    1
    35    24    25    1
    36    25    30   ar
    37    25    26   ar
    38    26    27   ar
    39    27    28   ar
    40    28    29   ar
    41    29    30   ar
    42     7    10    1
    43     5     6    1
    44    14    15    1
    45    14    16    1
#	Name:			ZINC12093034
#	Creating user name:	trannguyen
#	Creation time:		Thu Dec  1 16:45:04 2022


#	Modifying user name:	trannguyen
#	Modification time:	Thu Dec  1 16:45:04 2022

@<TRIPOS>MOLECULE
ZINC12093034
 30 33 0 0 0
SMALL
GASTEIGER

@<TRIPOS>ATOM
      1 C          -2.9299   60.4998   75.5628 C.3     1  UNL1        0.0783
      2 C          -4.2516   60.4132   74.7896 C.3     1  UNL1        0.0602
      3 C          -5.2496   59.5594   75.5766 C.3     1  UNL1        0.0114
      4 C          -4.8022   58.0927   75.5492 C.3     1  UNL1        0.0460
      5 C          -3.3483   58.0313   75.9454 C.ar    1  UNL1        0.0633
      6 C          -2.5151   59.1032   75.9534 C.ar    1  UNL1        0.0609
      7 C          -1.2594   58.6691   76.3736 C.ar    1  UNL1        0.1228
      8 N          -1.3310   57.3814   76.6099 N.ar    1  UNL1       -0.1639
      9 N          -2.6420   56.9576   76.3450 N.ar    1  UNL1       -0.2338
     10 C          -6.6365   59.6815   74.9422 C.3     1  UNL1        0.0006
     11 C          -5.3070   60.0480   77.0253 C.3     1  UNL1        0.0006
     12 C          -3.1291   55.6494   76.4737 C.ar    1  UNL1        0.0824
     13 C          -2.9385   54.7323   75.4491 C.ar    1  UNL1        0.0191
     14 C          -3.4142   53.4424   75.5814 C.ar    1  UNL1        0.0015
     15 C          -4.0905   53.0675   76.7279 C.ar    1  UNL1        0.0001
     16 C          -4.2869   53.9804   77.7477 C.ar    1  UNL1        0.0015
     17 C          -3.8081   55.2700   77.6237 C.ar    1  UNL1        0.0191
     18 N          -1.8968   61.1025   74.6996 N.4     1  UNL1        0.2568
     19 H          -1.8033   62.0922   74.9276 H       1  UNL1        0.2040
     20 H          -1.0109   60.6223   74.8576 H       1  UNL1        0.2040
     21 C          -2.2713   60.9636   73.2795 C.3     1  UNL1        0.1298
     22 C           0.4474   61.9683   70.8437 C.ar    1  UNL1        0.0346
     23 C           1.2900   60.8533   70.9021 C.ar    1  UNL1        0.0028
     24 C           0.9700   59.7944   71.7248 C.ar    1  UNL1       -0.0000
     25 C          -0.1789   59.8349   72.4959 C.ar    1  UNL1        0.0014
     26 C          -1.0203   60.9321   72.4397 C.ar    1  UNL1        0.0326
     27 C          -0.7141   61.9992   71.6217 C.ar    1  UNL1        0.0042
     28 C           2.1928   63.6307   69.9247 C.3     1  UNL1        0.0773
     29 C           0.7819   63.1031   69.9685 C.2     1  UNL1        0.1735
     30 O          -0.0779   63.6137   69.2826 O.2     1  UNL1       -0.2913
@<TRIPOS>UNITY_ATOM_ATTR
18 1
charge 1
@<TRIPOS>BOND
     1    28    29    1
     2    29    30    2
     3    29    22    1
     4    22    27   ar
     5    22    23   ar
     6    23    24   ar
     7    24    25   ar
     8    25    26   ar
     9    26    27   ar
    10    26    21    1
    11    21    18    1
    12     1     6    1
    13     1     2    1
    14     1    18    1
    15     2     3    1
    16     3     4    1
    17     3    10    1
    18     3    11    1
    19     4     5    1
    20     5     9   ar
    21     5     6   ar
    22     6     7   ar
    23     7     8   ar
    24     8     9   ar
    25     9    12    1
    26    12    17   ar
    27    12    13   ar
    28    13    14   ar
    29    14    15   ar
    30    15    16   ar
    31    16    17   ar
    32    18    19    1
    33    18    20    1
#	Name:			ZINC12191537
#	Creating user name:	trannguyen
#	Creation time:		Thu Dec  1 16:45:04 2022


#	Modifying user name:	trannguyen
#	Modification time:	Thu Dec  1 16:45:04 2022

@<TRIPOS>MOLECULE
ZINC12191537
 29 32 0 0 0
SMALL
GASTEIGER

@<TRIPOS>ATOM
      1 C           2.1626   61.0031   69.8593 C.ar    1  UNL1        0.0886
      2 C           1.1402   61.7302   70.3737 C.ar    1  UNL1        0.0076
      3 C           0.2752   61.1078   71.3777 C.ar    1  UNL1        0.0156
      4 C          -0.7953   61.8047   71.9444 C.ar    1  UNL1       -0.0031
      5 C          -1.5885   61.1983   72.8809 C.ar    1  UNL1       -0.0260
      6 C          -1.3358   59.8875   73.2741 C.ar    1  UNL1       -0.0247
      7 C          -0.2833   59.1846   72.7258 C.ar    1  UNL1        0.0127
      8 C           0.5336   59.7819   71.7733 C.ar    1  UNL1        0.0624
      9 N           1.5899   59.0968   71.2117 N.ar    1  UNL1       -0.2915
     10 C           2.3785   59.6765   70.2898 C.ar    1  UNL1        0.2626
     11 O           3.3027   59.0402   69.8137 O.2     1  UNL1       -0.2671
     12 C          -2.3544   59.4665   74.3131 C.3     1  UNL1        0.0264
     13 C          -3.5069   60.4850   74.1893 C.3     1  UNL1        0.0093
     14 C          -2.7907   61.7328   73.6311 C.3     1  UNL1        0.0264
     15 C           3.0720   61.6140   68.8244 C.3     1  UNL1        0.1343
     16 N           2.4353   62.8265   68.2768 N.4     1  UNL1        0.2538
     17 H           2.3453   62.7317   67.2652 H       1  UNL1        0.2036
     18 H           1.5143   62.9379   68.7007 H       1  UNL1        0.2036
     19 C           3.8472   66.8993   68.3715 C.3     1  UNL1        0.0298
     20 C           4.6346   65.8432   67.5933 C.3     1  UNL1        0.0984
     21 C           3.7204   64.6576   67.2734 C.3     1  UNL1        0.0821
     22 C           3.2515   64.0164   68.5832 C.3     1  UNL1        0.0576
     23 C           4.4771   63.6010   69.4028 C.3     1  UNL1        0.0870
     24 C           5.3621   64.8274   69.6404 C.3     1  UNL1        0.1478
     25 O           5.7373   65.3932   68.3831 O.3     1  UNL1       -0.3581
     26 C           5.1553   66.4525   66.2901 C.3     1  UNL1        0.0298
     27 C           1.8573   57.7172   71.6258 C.3     1  UNL1        0.1355
     28 C           2.7938   57.7196   72.8065 C.2     1  UNL1       -0.0017
     29 C           2.3976   57.2351   73.9574 C.2     1  UNL1       -0.0029
@<TRIPOS>UNITY_ATOM_ATTR
16 1
charge 1
@<TRIPOS>BOND
     1    19    20    1
     2    20    25    1
     3    20    21    1
     4    20    26    1
     5    21    22    1
     6    22    23    1
     7    22    16    1
     8    23    24    1
     9    24    25    1
    10    15     1    1
    11    15    16    1
    12     1    10   ar
    13     1     2   ar
    14     2     3   ar
    15     3     8   ar
    16     3     4   ar
    17     4     5   ar
    18     5    14    1
    19     5     6   ar
    20     6     7   ar
    21     6    12    1
    22     7     8   ar
    23     8     9   ar
    24     9    10   ar
    25     9    27    1
    26    10    11    2
    27    27    28    1
    28    28    29    2
    29    12    13    1
    30    13    14    1
    31    16    17    1
    32    16    18    1
#	Name:			ZINC12341355
#	Creating user name:	trannguyen
#	Creation time:		Thu Dec  1 16:45:04 2022


#	Modifying user name:	trannguyen
#	Modification time:	Thu Dec  1 16:45:04 2022

@<TRIPOS>MOLECULE
ZINC12341355
 16 18 0 0 0
SMALL
GASTEIGER

@<TRIPOS>ATOM
      1 C           3.1140   66.4058   68.5051 C.3     1  UNL1        0.0137
      2 C           3.5072   66.4130   67.0265 C.3     1  UNL1        0.0495
      3 C           4.4657   65.2533   66.7480 C.3     1  UNL1        0.0063
      4 C           5.7200   65.4103   67.6100 C.3     1  UNL1        0.0005
      5 C           5.3268   65.4032   69.0886 C.3     1  UNL1        0.0063
      6 C           4.3683   66.5627   69.3671 C.3     1  UNL1        0.0495
      7 C           4.6378   64.0796   69.4268 C.3     1  UNL1        0.0101
      8 C           3.3836   63.9227   68.5648 C.3     1  UNL1        0.0410
      9 C           3.7768   63.9298   67.0862 C.3     1  UNL1        0.0101
     10 C           2.4251   65.0822   68.8432 C.3     1  UNL1        0.0592
     11 S           2.5667   62.3534   68.9657 S.3     1  UNL1       -0.1694
     12 H           3.4187   61.3226   68.7182 H       1  UNL1        0.1022
     13 C           2.8390   68.8115   68.5047 C.3     1  UNL1        0.1636
     14 N           2.1837   67.5180   68.7761 N.4     1  UNL1        0.2509
     15 H           1.3635   67.4241   68.1771 H       1  UNL1        0.2033
     16 H           1.9057   67.4863   69.7570 H       1  UNL1        0.2033
@<TRIPOS>UNITY_ATOM_ATTR
14 1
charge 1
@<TRIPOS>BOND
     1    13    14    1
     2     1     6    1
     3     1    10    1
     4     1     2    1
     5     1    14    1
     6     2     3    1
     7     3     9    1
     8     3     4    1
     9     4     5    1
    10     5     6    1
    11     5     7    1
    12     7     8    1
    13     8     9    1
    14     8    10    1
    15     8    11    1
    16    11    12    1
    17    14    15    1
    18    14    16    1
#	Name:			ZINC12410393
#	Creating user name:	trannguyen
#	Creation time:		Thu Dec  1 16:45:04 2022


#	Modifying user name:	trannguyen
#	Modification time:	Thu Dec  1 16:45:04 2022

@<TRIPOS>MOLECULE
ZINC12410393
 16 17 0 0 0
SMALL
GASTEIGER

@<TRIPOS>ATOM
      1 C           3.6876   63.2369   65.9223 C.3     1  UNL1        0.2531
      2 N           3.7529   63.9593   67.1951 N.pl3   1  UNL1       -0.1936
      3 C           4.3216   65.3134   67.2731 C.3     1  UNL1        0.2020
      4 C           5.3429   65.3550   68.4138 C.3     1  UNL1        0.0514
      5 C           4.6677   64.9249   69.7190 C.3     1  UNL1        0.0168
      6 C           4.1684   63.4869   69.5807 C.3     1  UNL1        0.1131
      7 C           3.2858   63.3968   68.3542 C.2     1  UNL1        0.2557
      8 N           2.1165   62.8076   68.4003 N.2     1  UNL1       -0.2475
      9 H           1.5213   62.8327   67.6165 H       1  UNL1        0.3105
     10 C           1.7293   62.1684   69.5185 C.2     1  UNL1        0.1253
     11 C           2.1389   60.9310   69.8831 C.2     1  UNL1        0.0803
     12 C           1.5014   60.5325   71.1941 C.3     1  UNL1        0.0406
     13 C           0.3141   61.5088   71.3753 C.3     1  UNL1        0.0140
     14 C           0.7743   62.7290   70.5468 C.3     1  UNL1        0.0699
     15 C           3.0471   60.1159   69.1338 C.1     1  UNL1        0.0993
     16 N           3.7676   59.4694   68.5394 N.1     1  UNL1       -0.1911
@<TRIPOS>UNITY_ATOM_ATTR
8 1
charge 1
@<TRIPOS>BOND
     1     1     2    1
     2     2     7    1
     3     2     3    1
     4     3     4    1
     5     4     5    1
     6     5     6    1
     7     6     7    1
     8     7     8    2
     9     8    10    1
    10    10    14    1
    11    10    11    2
    12    11    12    1
    13    11    15    1
    14    12    13    1
    15    13    14    1
    16    15    16    3
    17     8     9    1
#	Name:			ZINC12456764
#	Creating user name:	trannguyen
#	Creation time:		Thu Dec  1 16:45:04 2022


#	Modifying user name:	trannguyen
#	Modification time:	Thu Dec  1 16:45:04 2022

@<TRIPOS>MOLECULE
ZINC12456764
 40 44 0 0 0
SMALL
GASTEIGER

@<TRIPOS>ATOM
      1 C          -0.4820   59.9832   75.4566 C.2     1  UNL1        0.2508
      2 O          -1.5476   59.9091   76.0378 O.2     1  UNL1       -0.2698
      3 N          -0.4534   60.1070   74.1148 N.am    1  UNL1       -0.2645
      4 C           0.8225   60.0956   73.3831 C.3     1  UNL1        0.1549
      5 C           0.8649   61.3176   72.4596 C.3     1  UNL1        0.1274
      6 C          -1.5551   61.4725   72.4223 C.3     1  UNL1        0.1274
      7 C          -1.6969   60.2564   73.3438 C.3     1  UNL1        0.1549
      8 N          -0.3379   61.3048   71.5988 N.4     1  UNL1        0.2814
      9 H          -0.3879   60.4080   71.1154 H       1  UNL1        0.2070
     10 C           3.2441   62.2628   79.9348 C.3     1  UNL1        0.0322
     11 C           2.1809   61.9069   78.9278 C.ar    1  UNL1       -0.0090
     12 C           1.0062   62.5314   78.7514 C.ar    1  UNL1        0.0300
     13 N           0.3034   61.9255   77.7447 N.ar    1  UNL1       -0.3565
     14 C           1.0234   60.8743   77.2379 C.ar    1  UNL1        0.0604
     15 C           2.2323   60.8128   77.9540 C.ar    1  UNL1        0.0128
     16 C           3.1744   59.8290   77.6512 C.ar    1  UNL1        0.0012
     17 C           2.9202   58.9163   76.6491 C.ar    1  UNL1        0.0002
     18 C           1.7334   58.9616   75.9401 C.ar    1  UNL1        0.0060
     19 C           0.7793   59.9376   76.2202 C.ar    1  UNL1        0.0691
     20 C           0.5314   63.7226   79.5430 C.3     1  UNL1        0.0494
     21 H          -0.5874   62.2035   77.4309 H       1  UNL1        0.1656
     22 C          -0.2531   62.3883   70.5978 C.3     1  UNL1        0.1536
     23 C           1.2058   62.8331   70.4771 C.3     1  UNL1        0.2657
     24 O           1.3176   63.8282   69.4575 O.3     1  UNL1       -0.4691
     25 C           2.5372   64.4031   69.2876 C.ar    1  UNL1        0.1387
     26 C           3.6853   63.7225   69.6673 C.ar    1  UNL1        0.0369
     27 C           4.9240   64.3069   69.4887 C.ar    1  UNL1        0.0030
     28 C           5.0199   65.5734   68.9417 C.ar    1  UNL1        0.0016
     29 C           3.8773   66.2559   68.5679 C.ar    1  UNL1        0.0357
     30 C           2.6361   65.6735   68.7397 C.ar    1  UNL1        0.0383
     31 C           3.9855   67.6362   67.9731 C.3     1  UNL1        0.1335
     32 C           5.1561   66.9728   65.9602 C.3     1  UNL1        0.1679
     33 N           3.8984   67.5295   66.5014 N.4     1  UNL1        0.2876
     34 H           3.1287   66.9056   66.2594 H       1  UNL1        0.2077
     35 C           3.6407   68.8605   65.9128 C.3     1  UNL1        0.1399
     36 C           4.0023   68.8235   64.4503 C.ar    1  UNL1        0.0621
     37 C           3.2217   68.5166   63.3855 C.ar    1  UNL1        0.0084
     38 C           3.7725   68.5521   62.1182 C.ar    1  UNL1        0.0074
     39 C           5.0797   68.8825   61.9787 C.ar    1  UNL1        0.0353
     40 S           5.5719   69.1650   63.6714 S.2     1  UNL1       -0.0850
@<TRIPOS>UNITY_ATOM_ATTR
8 1
charge 1
33 1
charge 1
@<TRIPOS>BOND
     1    10    11    1
     2    11    15   ar
     3    11    12   ar
     4    12    13   ar
     5    12    20    1
     6    13    14   ar
     7    14    19   ar
     8    14    15   ar
     9    15    16   ar
    10    16    17   ar
    11    17    18   ar
    12    18    19   ar
    13    19     1    1
    14     1     2    2
    15     1     3   am
    16     3     7    1
    17     3     4    1
    18     4     5    1
    19     5     8    1
    20     6     7    1
    21     6     8    1
    22    22    23    1
    23    22     8    1
    24    23    24    1
    25    24    25    1
    26    25    30   ar
    27    25    26   ar
    28    26    27   ar
    29    27    28   ar
    30    28    29   ar
    31    29    30   ar
    32    29    31    1
    33    31    33    1
    34    32    33    1
    35    35    36    1
    36    35    33    1
    37    36    40   ar
    38    36    37   ar
    39    37    38   ar
    40    38    39   ar
    41    39    40   ar
    42    13    21    1
    43     8     9    1
    44    33    34    1
#	Name:			ZINC12457322
#	Creating user name:	trannguyen
#	Creation time:		Thu Dec  1 16:45:04 2022


#	Modifying user name:	trannguyen
#	Modification time:	Thu Dec  1 16:45:04 2022

@<TRIPOS>MOLECULE
ZINC12457322
 41 45 0 0 0
SMALL
GASTEIGER

@<TRIPOS>ATOM
      1 C          -2.7457   59.8106   75.6678 C.3     1  UNL1        0.1052
      2 C          -4.1272   60.4689   75.6779 C.3     1  UNL1        0.1109
      3 C          -5.2148   58.3160   75.9112 C.3     1  UNL1        0.1113
      4 C          -3.8658   57.5934   75.9081 C.3     1  UNL1        0.1159
      5 C          -2.7947   58.5199   76.4902 C.3     1  UNL1        0.0674
      6 N          -5.1075   59.5359   75.0830 N.4     1  UNL1        0.2766
      7 H          -4.7901   59.2747   74.1495 H       1  UNL1        0.2067
      8 C          -0.4599   58.6504   77.1177 C.3     1  UNL1        0.1672
      9 C          -1.5637   56.4986   77.0016 C.3     1  UNL1        0.1672
     10 N          -1.4798   57.8498   76.4084 N.4     1  UNL1        0.2811
     11 H          -1.2116   57.7652   75.4279 H       1  UNL1        0.2069
     12 C          -2.3457   59.4846   74.2275 C.3     1  UNL1        0.0212
     13 C          -2.4838   60.7396   73.3634 C.3     1  UNL1        0.0858
     14 N          -1.0133   61.6145   71.5771 N.am    1  UNL1       -0.2839
     15 C          -1.1303   61.1343   72.8308 C.2     1  UNL1        0.2261
     16 O          -0.1463   61.0197   73.5308 O.2     1  UNL1       -0.2748
     17 H          -1.8184   61.7684   71.0318 H       1  UNL1        0.1549
     18 C           4.2030   66.1021   68.8262 C.3     1  UNL1        0.0594
     19 C           3.5298   64.8399   69.3000 C.ar    1  UNL1        0.0886
     20 N           2.3264   64.6965   69.7796 N.ar    1  UNL1       -0.2427
     21 C           1.8401   63.5001   70.1714 C.ar    1  UNL1        0.0887
     22 C           0.5699   63.1893   70.7052 C.ar    1  UNL1        0.0343
     23 C           0.2540   61.8948   71.0496 C.ar    1  UNL1        0.0518
     24 C           1.1716   60.8578   70.8896 C.ar    1  UNL1        0.0153
     25 C           2.4189   61.1320   70.3642 C.ar    1  UNL1        0.0093
     26 C           2.7413   62.4222   70.0184 C.ar    1  UNL1        0.0483
     27 S           4.1706   63.2267   69.3385 S.2     1  UNL1       -0.0708
     28 C          -6.4275   60.1908   74.9768 C.3     1  UNL1        0.1140
     29 C          -6.5263   61.2686   76.0584 C.3     1  UNL1        0.0997
     30 C          -6.8033   62.6026   75.4144 C.ar    1  UNL1       -0.0127
     31 C          -5.9154   63.6487   75.5825 C.ar    1  UNL1       -0.0038
     32 C          -6.1671   64.8711   74.9882 C.ar    1  UNL1       -0.0003
     33 C          -7.3115   65.0503   74.2337 C.ar    1  UNL1       -0.0000
     34 C          -8.2017   64.0055   74.0696 C.ar    1  UNL1       -0.0003
     35 C          -7.9478   62.7818   74.6604 C.ar    1  UNL1       -0.0038
     36 C          -7.6461   60.9267   77.0073 C.ar    1  UNL1       -0.0127
     37 C          -7.8170   61.6589   78.1672 C.ar    1  UNL1       -0.0038
     38 C          -8.8468   61.3480   79.0354 C.ar    1  UNL1       -0.0003
     39 C          -9.6999   60.2989   78.7483 C.ar    1  UNL1       -0.0000
     40 C          -9.5262   59.5637   77.5906 C.ar    1  UNL1       -0.0003
     41 C          -8.4990   59.8773   76.7204 C.ar    1  UNL1       -0.0038
@<TRIPOS>UNITY_ATOM_ATTR
6 1
charge 1
10 1
charge 1
@<TRIPOS>BOND
     1    18    19    1
     2    19    27   ar
     3    19    20   ar
     4    20    21   ar
     5    21    26   ar
     6    21    22   ar
     7    22    23   ar
     8    23    24   ar
     9    23    14    1
    10    24    25   ar
    11    25    26   ar
    12    26    27   ar
    13    14    15   am
    14    15    16    2
    15    15    13    1
    16    13    12    1
    17    12     1    1
    18     1     5    1
    19     1     2    1
    20     2     6    1
    21     3     4    1
    22     3     6    1
    23     4     5    1
    24     5    10    1
    25     8    10    1
    26     9    10    1
    27    28    29    1
    28    28     6    1
    29    29    30    1
    30    29    36    1
    31    30    35   ar
    32    30    31   ar
    33    31    32   ar
    34    32    33   ar
    35    33    34   ar
    36    34    35   ar
    37    36    41   ar
    38    36    37   ar
    39    37    38   ar
    40    38    39   ar
    41    39    40   ar
    42    40    41   ar
    43    14    17    1
    44     6     7    1
    45    10    11    1
#	Name:			ZINC12464793
#	Creating user name:	trannguyen
#	Creation time:		Thu Dec  1 16:45:04 2022


#	Modifying user name:	trannguyen
#	Modification time:	Thu Dec  1 16:45:04 2022

@<TRIPOS>MOLECULE
ZINC12464793
 33 36 0 0 0
SMALL
GASTEIGER

@<TRIPOS>ATOM
      1 C          -6.9102   61.9972   75.4193 C.2     1  UNL1        0.0860
      2 C          -5.6516   61.9671   74.9304 C.2     1  UNL1        0.0443
      3 N          -4.8039   63.0242   75.1006 N.am    1  UNL1       -0.2711
      4 C          -5.1385   64.1477   75.7477 C.2     1  UNL1        0.3047
      5 O          -4.3145   65.0355   75.8488 O.2     1  UNL1       -0.2525
      6 N          -6.3590   64.3260   76.2908 N.am    1  UNL1       -0.2821
      7 C          -7.3485   63.2430   76.1623 C.3     1  UNL1        0.1314
      8 H          -3.8958   62.9564   74.7264 H       1  UNL1        0.1561
      9 H          -6.5837   65.1605   76.7624 H       1  UNL1        0.1516
     10 C          -8.5593   63.8010   75.4597 C.ar    1  UNL1        0.0295
     11 C          -8.6328   64.4538   74.2740 C.ar    1  UNL1        0.0046
     12 C          -9.8664   64.8805   73.8190 C.ar    1  UNL1        0.0072
     13 C         -10.9653   64.6385   74.5748 C.ar    1  UNL1        0.0352
     14 S         -10.2690   63.7733   75.9726 S.2     1  UNL1       -0.0888
     15 C          -7.7892   60.9029   75.2442 C.2     1  UNL1        0.3400
     16 O          -8.5151   60.8556   74.2688 O.2     1  UNL1       -0.2451
     17 O          -7.8226   59.9113   76.1588 O.3     1  UNL1       -0.4456
     18 C          -9.3370   60.5880   77.9165 C.3     1  UNL1        0.0513
     19 C          -9.0882   59.6222   76.7563 C.3     1  UNL1        0.2089
     20 C          -5.1749   60.7471   74.1854 C.3     1  UNL1        0.1046
     21 S          -4.2189   59.6926   75.3035 S.3     1  UNL1       -0.0887
     22 C          -2.5883   60.0435   74.7357 C.ar    1  UNL1        0.1099
     23 C          -1.4570   59.6377   75.4976 C.ar    1  UNL1        0.0436
     24 C          -1.3954   58.9173   76.7571 C.ar    1  UNL1       -0.0159
     25 C          -0.1983   58.6352   77.2924 C.ar    1  UNL1        0.0052
     26 S           0.9548   59.3226   76.1190 S.2     1  UNL1       -0.0726
     27 C          -0.2025   59.9699   74.9418 C.ar    1  UNL1        0.1133
     28 N          -0.1075   60.6204   73.7985 N.ar    1  UNL1       -0.2241
     29 C          -1.1936   60.9745   73.1394 C.ar    1  UNL1        0.1407
     30 N          -2.4001   60.6929   73.5974 N.ar    1  UNL1       -0.2244
     31 C          -1.0551   61.7169   71.8354 C.3     1  UNL1        0.0737
     32 C           0.1008   57.9104   78.5793 C.3     1  UNL1        0.0379
     33 C          -2.6618   58.4966   77.4574 C.3     1  UNL1        0.0314
@<TRIPOS>BOND
     1    18    19    1
     2    19    17    1
     3    17    15    1
     4    15    16    2
     5    15     1    1
     6     1     7    1
     7     1     2    2
     8     2     3    1
     9     2    20    1
    10     3     4   am
    11     4     5    2
    12     4     6   am
    13     6     7    1
    14     7    10    1
    15    10    14   ar
    16    10    11   ar
    17    11    12   ar
    18    12    13   ar
    19    13    14   ar
    20    20    21    1
    21    21    22    1
    22    22    30   ar
    23    22    23   ar
    24    23    27   ar
    25    23    24   ar
    26    24    25   ar
    27    24    33    1
    28    25    26   ar
    29    25    32    1
    30    26    27   ar
    31    27    28   ar
    32    28    29   ar
    33    29    30   ar
    34    29    31    1
    35     3     8    1
    36     6     9    1
#	Name:			ZINC12487882
#	Creating user name:	trannguyen
#	Creation time:		Thu Dec  1 16:45:04 2022


#	Modifying user name:	trannguyen
#	Modification time:	Thu Dec  1 16:45:04 2022

@<TRIPOS>MOLECULE
ZINC12487882
 40 43 0 0 0
SMALL
GASTEIGER

@<TRIPOS>ATOM
      1 N          -2.9653   58.7265   75.4470 N.am    1  UNL1       -0.2467
      2 C          -3.2937   57.4221   75.5316 C.2     1  UNL1        0.2500
      3 O          -4.0106   56.9215   74.6909 O.2     1  UNL1       -0.2727
      4 C          -2.2228   59.3287   76.4689 C.ar    1  UNL1        0.0546
      5 C          -2.8712   59.9032   77.5543 C.ar    1  UNL1        0.0146
      6 C          -2.1352   60.4913   78.5642 C.ar    1  UNL1       -0.0030
      7 C          -0.7547   60.5191   78.4895 C.ar    1  UNL1       -0.0224
      8 C          -0.1063   59.9533   77.4070 C.ar    1  UNL1       -0.0030
      9 C          -0.8363   59.3582   76.3968 C.ar    1  UNL1        0.0146
     10 C           0.0450   61.1667   79.5905 C.3     1  UNL1        0.0224
     11 C           1.0543   62.1421   78.9817 C.3     1  UNL1        0.0047
     12 C          -0.8975   61.9261   80.5265 C.3     1  UNL1        0.0047
     13 C          -3.3856   59.5139   74.2854 C.3     1  UNL1        0.1785
     14 C          -7.8299   62.9011   75.7578 C.3     1  UNL1        0.0310
     15 C          -6.6708   62.0177   75.3743 C.ar    1  UNL1       -0.0219
     16 C          -5.4098   62.5617   75.2166 C.ar    1  UNL1       -0.0045
     17 C          -4.3467   61.7514   74.8643 C.ar    1  UNL1       -0.0025
     18 C          -4.5445   60.3972   74.6698 C.ar    1  UNL1        0.0048
     19 C          -5.8065   59.8541   74.8224 C.ar    1  UNL1       -0.0025
     20 C          -6.8686   60.6635   75.1798 C.ar    1  UNL1       -0.0045
     21 C          -2.2368   60.3687   73.8156 C.2     1  UNL1        0.2455
     22 O          -2.1685   61.5316   74.1533 O.2     1  UNL1       -0.2729
     23 N          -1.2882   59.8424   73.0159 N.am    1  UNL1       -0.2963
     24 H          -1.3436   58.8985   72.7418 H       1  UNL1        0.1499
     25 C          -0.1747   60.6751   72.5542 C.3     1  UNL1        0.1548
     26 C           0.8118   59.8214   71.7998 C.ar    1  UNL1        0.1428
     27 C           1.6458   60.2492   70.8350 C.ar    1  UNL1        0.0379
     28 C           2.3869   59.1243   70.4058 C.ar    1  UNL1        0.0435
     29 C           1.9615   58.0764   71.1339 C.ar    1  UNL1        0.1792
     30 O           1.0115   58.5057   71.9807 O.2     1  UNL1       -0.4530
     31 C          -2.7702   56.5855   76.6705 C.3     1  UNL1        0.1765
     32 N          -1.9743   55.4774   76.1370 N.am    1  UNL1       -0.2927
     33 C          -2.5003   54.2381   76.0758 C.2     1  UNL1        0.2522
     34 O          -3.6366   54.0395   76.4637 O.2     1  UNL1       -0.2696
     35 H          -1.0551   55.6381   75.8231 H       1  UNL1        0.1502
     36 C          -1.7038   53.1294   75.5419 C.ar    1  UNL1        0.0828
     37 C          -1.8748   52.4186   74.3642 C.ar    1  UNL1        0.0116
     38 C          -0.9725   51.4182   74.1013 C.ar    1  UNL1        0.0076
     39 C           0.0210   51.1692   74.9944 C.ar    1  UNL1        0.0356
     40 S          -0.2665   52.3379   76.2422 S.2     1  UNL1       -0.0819
@<TRIPOS>BOND
     1    14    15    1
     2    15    20   ar
     3    15    16   ar
     4    16    17   ar
     5    17    18   ar
     6    18    19   ar
     7    18    13    1
     8    19    20   ar
     9    13    21    1
    10    13     1    1
    11    21    22    2
    12    21    23   am
    13    23    25    1
    14    25    26    1
    15    26    30   ar
    16    26    27   ar
    17    27    28   ar
    18    28    29   ar
    19    29    30   ar
    20     1     4    1
    21     1     2   am
    22     4     9   ar
    23     4     5   ar
    24     5     6   ar
    25     6     7   ar
    26     7     8   ar
    27     7    10    1
    28     8     9   ar
    29    10    11    1
    30    10    12    1
    31     2     3    2
    32     2    31    1
    33    31    32    1
    34    32    33   am
    35    33    34    2
    36    33    36    1
    37    36    40   ar
    38    36    37   ar
    39    37    38   ar
    40    38    39   ar
    41    39    40   ar
    42    23    24    1
    43    32    35    1
#	Name:			ZINC12511408
#	Creating user name:	trannguyen
#	Creation time:		Thu Dec  1 16:45:04 2022


#	Modifying user name:	trannguyen
#	Modification time:	Thu Dec  1 16:45:04 2022

@<TRIPOS>MOLECULE
ZINC12511408
 41 45 0 0 0
SMALL
GASTEIGER

@<TRIPOS>ATOM
      1 C          -1.3846   59.8208   75.1433 C.3     1  UNL1        0.1387
      2 C          -0.3632   60.1058   74.0141 C.3     1  UNL1        0.1255
      3 C          -1.2985   60.3637   72.8034 C.3     1  UNL1        0.1152
      4 C          -2.5025   61.0874   73.4422 C.3     1  UNL1        0.1613
      5 N          -2.4957   60.7528   74.8777 N.4     1  UNL1        0.2833
      6 H          -2.3695   61.6013   75.4295 H       1  UNL1        0.2072
      7 C           0.6867   61.4250   77.9346 C.3     1  UNL1        0.1108
      8 N           0.0937   61.1379   76.6260 N.am    1  UNL1       -0.2981
      9 C          -0.7746   60.1162   76.4893 C.2     1  UNL1        0.2723
     10 O          -1.0651   59.4346   77.4495 O.2     1  UNL1       -0.2690
     11 H           0.3295   61.6911   75.8466 H       1  UNL1        0.1497
     12 N          -0.6307   61.2293   71.8131 N.4     1  UNL1        0.2582
     13 H          -1.0814   62.1443   71.8079 H       1  UNL1        0.2039
     14 H          -0.7048   60.7979   70.8919 H       1  UNL1        0.2039
     15 C           0.7954   61.3913   72.1536 C.3     1  UNL1        0.1328
     16 C           1.6331   61.0420   70.9507 C.ar    1  UNL1        0.0665
     17 C           2.1829   62.0593   70.1534 C.ar    1  UNL1        0.0044
     18 C           1.9690   63.4161   70.4526 C.ar    1  UNL1       -0.0000
     19 C           2.5178   64.3754   69.6586 C.ar    1  UNL1       -0.0000
     20 C           3.2901   64.0337   68.5498 C.ar    1  UNL1       -0.0000
     21 C           3.5185   62.7307   68.2295 C.ar    1  UNL1       -0.0000
     22 C           2.9686   61.7119   69.0260 C.ar    1  UNL1        0.0001
     23 C           3.1843   60.3556   68.7252 C.ar    1  UNL1        0.0031
     24 C           2.6382   59.3942   69.5169 C.ar    1  UNL1        0.0368
     25 C           1.8668   59.7345   70.6328 C.ar    1  UNL1        0.1402
     26 O           1.3387   58.7513   71.4079 O.3     1  UNL1       -0.4715
     27 C           2.1506   57.5974   71.6349 C.3     1  UNL1        0.2525
     28 C          -3.7904   60.1332   75.2629 C.3     1  UNL1        0.1145
     29 C          -4.4694   60.9982   76.3266 C.3     1  UNL1        0.0997
     30 C          -5.6654   61.6891   75.7241 C.ar    1  UNL1       -0.0127
     31 C          -5.6515   63.0588   75.5381 C.ar    1  UNL1       -0.0038
     32 C          -6.7468   63.6919   74.9809 C.ar    1  UNL1       -0.0003
     33 C          -7.8602   62.9566   74.6195 C.ar    1  UNL1       -0.0000
     34 C          -7.8762   61.5875   74.8103 C.ar    1  UNL1       -0.0003
     35 C          -6.7788   60.9538   75.3626 C.ar    1  UNL1       -0.0038
     36 C          -4.9166   60.1270   77.4721 C.ar    1  UNL1       -0.0127
     37 C          -5.4913   60.6987   78.5918 C.ar    1  UNL1       -0.0038
     38 C          -5.9060   59.8993   79.6405 C.ar    1  UNL1       -0.0003
     39 C          -5.7363   58.5290   79.5740 C.ar    1  UNL1       -0.0000
     40 C          -5.1568   57.9577   78.4566 C.ar    1  UNL1       -0.0003
     41 C          -4.7469   58.7567   77.4056 C.ar    1  UNL1       -0.0038
@<TRIPOS>UNITY_ATOM_ATTR
5 1
charge 1
12 1
charge 1
@<TRIPOS>BOND
     1     7     8    1
     2     8     9   am
     3     9    10    2
     4     9     1    1
     5     1     2    1
     6     1     5    1
     7     2     3    1
     8     3     4    1
     9     3    12    1
    10     4     5    1
    11    28    29    1
    12    28     5    1
    13    29    30    1
    14    29    36    1
    15    30    35   ar
    16    30    31   ar
    17    31    32   ar
    18    32    33   ar
    19    33    34   ar
    20    34    35   ar
    21    36    41   ar
    22    36    37   ar
    23    37    38   ar
    24    38    39   ar
    25    39    40   ar
    26    40    41   ar
    27    15    16    1
    28    15    12    1
    29    16    25   ar
    30    16    17   ar
    31    17    22   ar
    32    17    18   ar
    33    18    19   ar
    34    19    20   ar
    35    20    21   ar
    36    21    22   ar
    37    22    23   ar
    38    23    24   ar
    39    24    25   ar
    40    25    26    1
    41    26    27    1
    42     8    11    1
    43     5     6    1
    44    12    13    1
    45    12    14    1
#	Name:			ZINC12586861
#	Creating user name:	trannguyen
#	Creation time:		Thu Dec  1 16:45:04 2022


#	Modifying user name:	trannguyen
#	Modification time:	Thu Dec  1 16:45:04 2022

@<TRIPOS>MOLECULE
ZINC12586861
 32 36 0 0 0
SMALL
GASTEIGER

@<TRIPOS>ATOM
      1 C          -2.2500   60.5694   73.8467 C.ar    1  UNL1        0.1064
      2 C          -1.0795   60.1842   74.5302 C.ar    1  UNL1        0.0711
      3 C          -0.0285   60.4058   73.7111 C.ar    1  UNL1        0.1033
      4 N          -0.5077   60.9189   72.5480 N.ar    1  UNL1       -0.2283
      5 N          -1.9008   61.0151   72.6581 N.ar    1  UNL1       -0.1651
      6 C          -6.2189   60.3425   75.3644 C.ar    1  UNL1        0.1410
      7 C          -5.6429   61.5801   75.1098 C.ar    1  UNL1        0.0371
      8 C          -4.3548   61.6568   74.6231 C.ar    1  UNL1        0.0069
      9 C          -3.6337   60.4901   74.3757 C.ar    1  UNL1        0.0469
     10 C          -4.2145   59.2471   74.6321 C.ar    1  UNL1        0.1446
     11 C          -5.5035   59.1780   75.1248 C.ar    1  UNL1        0.0665
     12 F          -3.5173   58.1136   74.3996 F       1  UNL1       -0.2040
     13 C          -8.5180   60.8640   75.0583 C.3     1  UNL1        0.2525
     14 O          -7.4861   60.2716   75.8497 O.3     1  UNL1       -0.4714
     15 C           0.2574   61.2873   71.4336 C.ar    1  UNL1        0.0828
     16 C          -0.0251   62.4650   70.7542 C.ar    1  UNL1        0.0191
     17 C           0.7340   62.8277   69.6589 C.ar    1  UNL1        0.0015
     18 C           1.7678   62.0143   69.2323 C.ar    1  UNL1        0.0001
     19 C           2.0482   60.8383   69.9036 C.ar    1  UNL1        0.0015
     20 C           1.2961   60.4727   71.0027 C.ar    1  UNL1        0.0191
     21 C          -1.0127   59.6189   75.9256 C.3     1  UNL1        0.1364
     22 C           0.4571   57.9261   76.8336 C.3     1  UNL1        0.1678
     23 C           1.9064   57.5706   77.2019 C.3     1  UNL1        0.1672
     24 C           3.7613   58.4487   78.6243 C.3     1  UNL1        0.1058
     25 C           4.0948   59.8646   79.1675 C.3     1  UNL1        0.0670
     26 C           3.1531   60.8217   78.3918 C.3     1  UNL1        0.0672
     27 C           2.4072   59.9035   77.4192 C.3     1  UNL1        0.1119
     28 C           0.9606   60.2999   77.1636 C.3     1  UNL1        0.1615
     29 N           0.3879   59.2815   76.2368 N.4     1  UNL1        0.2883
     30 N           2.3910   58.6513   78.1324 N.4     1  UNL1        0.2806
     31 H           0.9371   59.2841   75.3772 H       1  UNL1        0.2076
     32 H           1.7543   58.6372   78.9291 H       1  UNL1        0.2069
@<TRIPOS>UNITY_ATOM_ATTR
29 1
charge 1
30 1
charge 1
@<TRIPOS>BOND
     1    13    14    1
     2    14     6    1
     3     6    11   ar
     4     6     7   ar
     5     7     8   ar
     6     8     9   ar
     7     9    10   ar
     8     9     1    1
     9    10    11   ar
    10    10    12    1
    11     1     5   ar
    12     1     2   ar
    13     2     3   ar
    14     2    21    1
    15     3     4   ar
    16     4     5   ar
    17     4    15    1
    18    15    20   ar
    19    15    16   ar
    20    16    17   ar
    21    17    18   ar
    22    18    19   ar
    23    19    20   ar
    24    21    29    1
    25    22    23    1
    26    22    29    1
    27    23    30    1
    28    24    25    1
    29    24    30    1
    30    25    26    1
    31    26    27    1
    32    27    28    1
    33    27    30    1
    34    28    29    1
    35    29    31    1
    36    30    32    1
#	Name:			ZINC12611729
#	Creating user name:	trannguyen
#	Creation time:		Thu Dec  1 16:45:04 2022


#	Modifying user name:	trannguyen
#	Modification time:	Thu Dec  1 16:45:04 2022

@<TRIPOS>MOLECULE
ZINC12611729
 38 41 0 0 0
SMALL
GASTEIGER

@<TRIPOS>ATOM
      1 C           1.0727   59.8981   74.8719 C.3     1  UNL1        0.1107
      2 C           1.1262   59.8038   72.4377 C.2     1  UNL1        0.2341
      3 O           1.3709   58.6187   72.5182 O.2     1  UNL1       -0.2741
      4 N           0.9589   60.5350   73.5575 N.am    1  UNL1       -0.3019
      5 H           0.7603   61.4970   73.4921 H       1  UNL1        0.1495
      6 C           1.0094   60.4589   71.0855 C.3     1  UNL1        0.1540
      7 S           0.3118   62.1180   71.2771 S.3     1  UNL1       -0.0184
      8 C           5.2233   65.0748   68.7351 C.ar    1  UNL1        0.0153
      9 C           4.8547   64.0823   69.6155 C.ar    1  UNL1        0.0467
     10 C           3.5010   63.8118   69.8295 C.ar    1  UNL1        0.1827
     11 C           2.5293   64.5577   69.1419 C.ar    1  UNL1        0.1835
     12 C           2.9176   65.5536   68.2589 C.ar    1  UNL1        0.0572
     13 C           4.2596   65.8090   68.0583 C.ar    1  UNL1        0.0615
     14 CL          4.7444   67.0559   66.9519 Cl      1  UNL1       -0.0821
     15 N           1.3019   64.0661   69.5553 N.ar    1  UNL1       -0.2306
     16 C           1.5478   63.0665   70.4542 C.ar    1  UNL1        0.3186
     17 N           2.8401   62.9162   70.6097 N.ar    1  UNL1       -0.2306
     18 H           0.4172   64.3786   69.2571 H       1  UNL1        0.3119
     19 H           3.2673   62.2554   71.2014 H       1  UNL1        0.3119
     20 C          -0.1168   60.3088   75.7422 C.3     1  UNL1        0.1107
     21 N          -1.3366   59.6788   75.2309 N.am    1  UNL1       -0.3019
     22 C          -2.2260   60.4059   74.5262 C.2     1  UNL1        0.2341
     23 O          -2.0166   61.5818   74.3153 O.2     1  UNL1       -0.2741
     24 H          -1.5065   58.7243   75.4020 H       1  UNL1        0.1495
     25 C          -3.4807   59.7578   74.0000 C.3     1  UNL1        0.1540
     26 S          -4.6978   59.6285   75.3334 S.3     1  UNL1       -0.0184
     27 C          -5.5389   61.1633   75.1299 C.ar    1  UNL1        0.3186
     28 N          -6.8254   61.3016   74.6903 N.ar    1  UNL1       -0.2306
     29 C          -7.1091   62.6575   74.6709 C.ar    1  UNL1        0.1835
     30 C          -8.2276   63.4003   74.3255 C.ar    1  UNL1        0.0572
     31 C          -8.1935   64.7776   74.4181 C.ar    1  UNL1        0.0615
     32 C          -7.0457   65.4239   74.8549 C.ar    1  UNL1        0.0153
     33 C          -5.9262   64.7010   75.2022 C.ar    1  UNL1        0.0467
     34 C          -5.9451   63.3070   75.1140 C.ar    1  UNL1        0.1827
     35 N          -5.0262   62.3423   75.3830 N.ar    1  UNL1       -0.2306
     36 CL         -9.5946   65.7065   73.9849 Cl      1  UNL1       -0.0821
     37 H          -7.4367   60.5734   74.4349 H       1  UNL1        0.3119
     38 H          -4.1144   62.5047   75.7171 H       1  UNL1        0.3119
@<TRIPOS>UNITY_ATOM_ATTR
17 1
charge 1
35 1
charge 1
@<TRIPOS>BOND
     1     8    13   ar
     2     8     9   ar
     3     9    10   ar
     4    10    17   ar
     5    10    11   ar
     6    11    12   ar
     7    11    15   ar
     8    12    13   ar
     9    13    14    1
    10    15    16   ar
    11    16    17   ar
    12    16     7    1
    13     7     6    1
    14     6     2    1
    15     2     3    2
    16     2     4   am
    17     4     1    1
    18     1    20    1
    19    20    21    1
    20    21    22   am
    21    22    23    2
    22    22    25    1
    23    25    26    1
    24    26    27    1
    25    27    35   ar
    26    27    28   ar
    27    28    29   ar
    28    29    34   ar
    29    29    30   ar
    30    30    31   ar
    31    31    32   ar
    32    31    36    1
    33    32    33   ar
    34    33    34   ar
    35    34    35   ar
    36    15    18    1
    37    17    19    1
    38     4     5    1
    39    21    24    1
    40    28    37    1
    41    35    38    1
#	Name:			ZINC12758251
#	Creating user name:	trannguyen
#	Creation time:		Thu Dec  1 16:45:04 2022


#	Modifying user name:	trannguyen
#	Modification time:	Thu Dec  1 16:45:04 2022

@<TRIPOS>MOLECULE
ZINC12758251
 30 33 0 0 0
SMALL
GASTEIGER

@<TRIPOS>ATOM
      1 N           1.9869   56.4976   76.4205 N.ar    1  UNL1       -0.2342
      2 C           1.2892   57.6486   76.4401 C.ar    1  UNL1        0.0595
      3 C           1.5828   58.3317   75.3044 C.ar    1  UNL1        0.0300
      4 C           2.4910   57.5733   74.5683 C.ar    1  UNL1        0.1190
      5 N           2.7364   56.4711   75.2348 N.ar    1  UNL1       -0.1641
      6 C           0.9970   59.6760   74.9507 C.3     1  UNL1        0.0968
      7 C          -0.2368   59.9124   75.8304 C.3     1  UNL1        0.0246
      8 C           0.1206   59.6458   77.2950 C.3     1  UNL1        0.0075
      9 C           0.3403   58.1424   77.5033 C.3     1  UNL1        0.0457
     10 C          -1.0219   60.1234   78.1937 C.3     1  UNL1        0.0005
     11 C           1.4012   60.4026   77.6533 C.3     1  UNL1        0.0005
     12 C           3.6916   56.8097   78.6781 C.3     1  UNL1        0.0326
     13 C           2.7837   55.6166   78.5254 C.ar    1  UNL1       -0.0042
     14 C           2.7581   54.6380   79.5000 C.ar    1  UNL1       -0.0028
     15 C           1.9298   53.5401   79.3576 C.ar    1  UNL1       -0.0002
     16 C           1.1200   53.4213   78.2429 C.ar    1  UNL1        0.0015
     17 C           1.1367   54.3995   77.2681 C.ar    1  UNL1        0.0188
     18 C           1.9677   55.5031   77.4081 C.ar    1  UNL1        0.0784
     19 N           0.6062   59.6879   73.5388 N.am    1  UNL1       -0.3021
     20 C           0.9435   60.7311   72.7550 C.2     1  UNL1        0.2230
     21 O           1.5705   61.6601   73.2186 O.2     1  UNL1       -0.2751
     22 H           0.0972   58.9339   73.1625 H       1  UNL1        0.1497
     23 C           0.5415   60.7435   71.3027 C.3     1  UNL1        0.0898
     24 C           1.7943   60.6880   70.4262 C.3     1  UNL1        0.0391
     25 C           1.9929   62.0195   69.7488 C.ar    1  UNL1        0.0176
     26 C           3.0035   62.3426   68.9090 C.ar    1  UNL1        0.0881
     27 N           2.8201   63.6209   68.5173 N.ar    1  UNL1       -0.2746
     28 N           1.6634   64.1021   69.1441 N.ar    1  UNL1       -0.1714
     29 C           1.1685   63.1415   69.8819 C.ar    1  UNL1        0.1171
     30 H           3.3973   64.1260   67.9002 H       1  UNL1        0.1890
@<TRIPOS>BOND
     1    12    13    1
     2    13    18   ar
     3    13    14   ar
     4    14    15   ar
     5    15    16   ar
     6    16    17   ar
     7    17    18   ar
     8    18     1    1
     9     1     5   ar
    10     1     2   ar
    11     2     9    1
    12     2     3   ar
    13     3     4   ar
    14     3     6    1
    15     4     5   ar
    16     6     7    1
    17     6    19    1
    18     7     8    1
    19     8     9    1
    20     8    10    1
    21     8    11    1
    22    19    20   am
    23    20    21    2
    24    20    23    1
    25    23    24    1
    26    24    25    1
    27    25    29   ar
    28    25    26   ar
    29    26    27   ar
    30    27    28   ar
    31    28    29   ar
    32    19    22    1
    33    27    30    1
#	Name:			ZINC12763607
#	Creating user name:	trannguyen
#	Creation time:		Thu Dec  1 16:45:04 2022


#	Modifying user name:	trannguyen
#	Modification time:	Thu Dec  1 16:45:04 2022

@<TRIPOS>MOLECULE
ZINC12763607
 30 33 0 0 0
SMALL
GASTEIGER

@<TRIPOS>ATOM
      1 C           4.2652   64.9568   69.1420 C.3     1  UNL1        0.1550
      2 C           5.0266   66.1903   67.2031 C.3     1  UNL1        0.1095
      3 C           4.5595   67.0409   66.0197 C.3     1  UNL1        0.1045
      4 C           3.9342   68.3365   66.5440 C.3     1  UNL1        0.1779
      5 C           2.7753   67.9911   67.4832 C.3     1  UNL1        0.1045
      6 C           3.2940   67.1130   68.6241 C.3     1  UNL1        0.1095
      7 N           3.8608   65.8719   68.0547 N.4     1  UNL1        0.2807
      8 H           3.1495   65.4155   67.4837 H       1  UNL1        0.2071
      9 O           3.4454   69.1104   65.4467 O.3     1  UNL1       -0.4765
     10 C           4.1314   69.0239   64.2762 C.ar    1  UNL1        0.1656
     11 C           5.4949   69.2745   64.2500 C.ar    1  UNL1        0.0392
     12 C           6.1903   69.1855   63.0593 C.ar    1  UNL1        0.0033
     13 C           5.5287   68.8463   61.8936 C.ar    1  UNL1        0.0025
     14 C           4.1692   68.5959   61.9151 C.ar    1  UNL1        0.0328
     15 C           3.4688   68.6784   63.1052 C.ar    1  UNL1        0.1738
     16 F           2.1413   68.4285   63.1277 F       1  UNL1       -0.2010
     17 C           3.5547   63.0237   66.7907 C.3     1  UNL1        0.0741
     18 C           2.9852   62.9786   68.1853 C.ar    1  UNL1        0.1442
     19 C           3.2899   63.8092   69.1982 C.ar    1  UNL1        0.1471
     20 N           2.5707   63.4350   70.2677 N.ar    1  UNL1       -0.2071
     21 C           1.8353   62.3992   69.9371 C.ar    1  UNL1        0.2313
     22 O           2.0715   62.1015   68.6475 O.2     1  UNL1       -0.4390
     23 C           0.9009   61.6840   70.8304 C.ar    1  UNL1        0.0811
     24 C          -0.2757   62.3039   71.2552 C.ar    1  UNL1        0.0092
     25 C          -1.1445   61.6320   72.0883 C.ar    1  UNL1        0.0299
     26 C          -0.8528   60.3422   72.5055 C.ar    1  UNL1        0.1424
     27 C           0.3124   59.7203   72.0885 C.ar    1  UNL1        0.0594
     28 C           1.1886   60.3815   71.2491 C.ar    1  UNL1        0.1468
     29 F           2.3226   59.7729   70.8383 F       1  UNL1       -0.2039
     30 F          -1.7089   59.6893   73.3218 F       1  UNL1       -0.2041
@<TRIPOS>UNITY_ATOM_ATTR
7 1
charge 1
@<TRIPOS>BOND
     1    17    18    1
     2    18    22   ar
     3    18    19   ar
     4    19    20   ar
     5    19     1    1
     6    20    21   ar
     7    21    22   ar
     8    21    23    1
     9    23    28   ar
    10    23    24   ar
    11    24    25   ar
    12    25    26   ar
    13    26    27   ar
    14    26    30    1
    15    27    28   ar
    16    28    29    1
    17     1     7    1
    18     2     3    1
    19     2     7    1
    20     3     4    1
    21     4     5    1
    22     4     9    1
    23     5     6    1
    24     6     7    1
    25     9    10    1
    26    10    15   ar
    27    10    11   ar
    28    11    12   ar
    29    12    13   ar
    30    13    14   ar
    31    14    15   ar
    32    15    16    1
    33     7     8    1
#	Name:			ZINC13474315
#	Creating user name:	trannguyen
#	Creation time:		Thu Dec  1 16:45:04 2022


#	Modifying user name:	trannguyen
#	Modification time:	Thu Dec  1 16:45:04 2022

@<TRIPOS>MOLECULE
ZINC13474315
 41 44 0 0 0
SMALL
GASTEIGER

@<TRIPOS>ATOM
      1 C          -3.1399   57.6373   75.6466 C.ar    1  UNL1        0.1142
      2 C          -3.6444   56.4555   75.2046 C.ar    1  UNL1        0.0233
      3 C          -3.3164   55.4625   76.1590 C.ar    1  UNL1        0.0196
      4 C          -3.5693   54.0867   76.2414 C.ar    1  UNL1        0.0311
      5 C          -3.1115   53.3752   77.3139 C.ar    1  UNL1        0.1402
      6 C          -2.3954   54.0046   78.3271 C.ar    1  UNL1        0.0311
      7 C          -2.1361   55.3551   78.2675 C.ar    1  UNL1        0.0195
      8 C          -2.5917   56.1010   77.1840 C.ar    1  UNL1        0.0604
      9 N          -2.4922   57.4318   76.8492 N.ar    1  UNL1       -0.3194
     10 F          -3.3561   52.0486   77.3911 F       1  UNL1       -0.2042
     11 N          -2.2225   59.4126   74.2440 N.am    1  UNL1       -0.2957
     12 C          -3.2612   58.9285   74.9535 C.2     1  UNL1        0.2620
     13 O          -4.2988   59.5598   75.0205 O.2     1  UNL1       -0.2686
     14 H          -1.3598   58.9383   74.2483 H       1  UNL1        0.1501
     15 C          -2.3774   60.6445   73.4664 C.3     1  UNL1        0.1166
     16 C           1.0097   61.1520   70.9134 C.ar    1  UNL1        0.1660
     17 C           0.0413   62.1361   70.9806 C.ar    1  UNL1        0.0627
     18 C          -1.0548   61.9719   71.8070 C.ar    1  UNL1        0.0033
     19 C          -1.1825   60.8234   72.5655 C.ar    1  UNL1       -0.0022
     20 C          -0.2115   59.8417   72.5023 C.ar    1  UNL1        0.0033
     21 C           0.8822   60.0039   71.6727 C.ar    1  UNL1        0.0627
     22 C           2.7478   60.0128   69.8348 C.3     1  UNL1        0.3354
     23 N           2.1175   61.3175   70.0769 N.pl3   1  UNL1       -0.3119
     24 C           1.6834   61.8964   68.7984 C.3     1  UNL1        0.3354
     25 C           3.0853   62.2174   70.7183 C.3     1  UNL1        0.2836
     26 C           3.4512   63.3245   69.7636 C.2     1  UNL1        0.0513
     27 C           4.6911   63.7397   69.6864 C.2     1  UNL1        0.0020
     28 C          -1.8158   58.4622   77.6409 C.3     1  UNL1        0.1329
     29 C          -0.4919   58.7971   77.0036 C.ar    1  UNL1        0.0006
     30 C          -0.1061   60.1187   76.8671 C.ar    1  UNL1       -0.0024
     31 C           1.1077   60.4340   76.2836 C.ar    1  UNL1       -0.0000
     32 C           1.9389   59.4308   75.8283 C.ar    1  UNL1        0.0072
     33 C           1.5581   58.0967   75.9681 C.ar    1  UNL1        0.0772
     34 C           0.3331   57.7852   76.5578 C.ar    1  UNL1        0.0048
     35 C           2.4483   57.0152   75.4876 C.2     1  UNL1        0.2674
     36 N           3.4367   57.2937   74.5689 N.pl3   1  UNL1       -0.2497
     37 N           2.2430   55.8030   75.9789 N.2     1  UNL1       -0.2884
     38 H           3.5511   58.2117   74.2321 H       1  UNL1        0.2883
     39 H           4.0284   56.5748   74.2494 H       1  UNL1        0.2883
     40 H           1.5236   55.6527   76.6340 H       1  UNL1        0.3009
     41 H           2.8097   55.0519   75.6892 H       1  UNL1        0.3009
@<TRIPOS>UNITY_ATOM_ATTR
23 1
charge 1
37 1
charge 1
@<TRIPOS>BOND
     1    22    23    1
     2    23    24    1
     3    23    25    1
     4    23    16    1
     5    25    26    1
     6    26    27    2
     7    16    21   ar
     8    16    17   ar
     9    17    18   ar
    10    18    19   ar
    11    19    20   ar
    12    19    15    1
    13    20    21   ar
    14    15    11    1
    15    11    12   am
    16    12    13    2
    17    12     1    1
    18     1     9   ar
    19     1     2   ar
    20     2     3   ar
    21     3     8   ar
    22     3     4   ar
    23     4     5   ar
    24     5     6   ar
    25     5    10    1
    26     6     7   ar
    27     7     8   ar
    28     8     9   ar
    29     9    28    1
    30    28    29    1
    31    29    34   ar
    32    29    30   ar
    33    30    31   ar
    34    31    32   ar
    35    32    33   ar
    36    33    34   ar
    37    33    35    1
    38    35    36    1
    39    35    37    2
    40    11    14    1
    41    36    38    1
    42    36    39    1
    43    37    40    1
    44    37    41    1
#	Name:			ZINC13906764
#	Creating user name:	trannguyen
#	Creation time:		Thu Dec  1 16:45:04 2022


#	Modifying user name:	trannguyen
#	Modification time:	Thu Dec  1 16:45:04 2022

@<TRIPOS>MOLECULE
ZINC13906764
 40 42 0 0 0
SMALL
GASTEIGER

@<TRIPOS>ATOM
      1 C          -1.8175   60.8029   74.5501 C.3     1  UNL1        0.1849
      2 O          -2.0999   62.1361   74.1202 O.3     1  UNL1       -0.3775
      3 H          -2.1097   62.1681   73.1508 H       1  UNL1        0.2106
      4 C          -0.4515   60.3722   74.0119 C.3     1  UNL1        0.1118
      5 C           1.2937   59.5479   75.4991 C.2     1  UNL1        0.4014
      6 O           1.8897   60.5934   75.3313 O.2     1  UNL1       -0.2264
      7 N           0.1131   59.3388   74.8834 N.am    1  UNL1       -0.2694
      8 H          -0.3698   58.4918   75.0194 H       1  UNL1        0.1528
      9 O           1.8126   58.5982   76.3001 O.3     1  UNL1       -0.4419
     10 C           2.3689   57.6182   74.1412 C.3     1  UNL1        0.0437
     11 C           2.5490   57.5242   75.6577 C.3     1  UNL1        0.1378
     12 C           4.0344   57.6466   76.0034 C.3     1  UNL1        0.0437
     13 C           2.0197   56.1763   76.1515 C.3     1  UNL1        0.0437
     14 C          -0.6140   59.8131   72.5970 C.3     1  UNL1        0.0487
     15 C           0.1817   60.6524   71.6308 C.ar    1  UNL1       -0.0204
     16 C           1.3705   60.1719   71.1143 C.ar    1  UNL1       -0.0042
     17 C           2.0979   60.9399   70.2243 C.ar    1  UNL1       -0.0003
     18 C           1.6418   62.1926   69.8590 C.ar    1  UNL1       -0.0000
     19 C           0.4556   62.6753   70.3795 C.ar    1  UNL1       -0.0003
     20 C          -0.2744   61.9051   71.2654 C.ar    1  UNL1       -0.0042
     21 C          -2.8962   59.8566   74.0193 C.3     1  UNL1        0.1618
     22 N          -3.4881   59.1118   75.1386 N.4     1  UNL1        0.4072
     23 C          -3.1354   59.7683   76.4046 C.3     1  UNL1        0.1929
     24 N          -3.0074   57.8332   75.1395 N.am    1  UNL1       -0.2715
     25 C          -3.3939   56.9687   76.0985 C.2     1  UNL1        0.2793
     26 O          -4.1702   57.3267   76.9627 O.2     1  UNL1       -0.2658
     27 H          -2.3786   57.5431   74.4396 H       1  UNL1        0.2009
     28 C          -2.8737   55.5847   76.0995 C.ar    1  UNL1        0.0574
     29 C          -3.1788   54.7205   75.0467 C.ar    1  UNL1        0.0047
     30 C          -2.6858   53.4320   75.0512 C.ar    1  UNL1        0.0001
     31 C          -1.8998   52.9924   76.1015 C.ar    1  UNL1        0.0000
     32 C          -1.5983   53.8422   77.1509 C.ar    1  UNL1        0.0001
     33 C          -2.0801   55.1349   77.1559 C.ar    1  UNL1        0.0047
     34 C          -4.9494   59.0855   74.9911 C.3     1  UNL1        0.1577
     35 C          -5.5287   60.3817   75.4963 C.ar    1  UNL1        0.0334
     36 C          -6.0280   60.4607   76.7828 C.ar    1  UNL1        0.0014
     37 C          -6.5545   61.6512   77.2479 C.ar    1  UNL1       -0.0001
     38 C          -6.5917   62.7597   76.4229 C.ar    1  UNL1       -0.0000
     39 C          -6.0976   62.6792   75.1344 C.ar    1  UNL1       -0.0001
     40 C          -5.5658   61.4902   74.6712 C.ar    1  UNL1        0.0014
@<TRIPOS>UNITY_ATOM_ATTR
22 1
charge 1
@<TRIPOS>BOND
     1    10    11    1
     2    11    12    1
     3    11    13    1
     4    11     9    1
     5     9     5    1
     6     5     6    2
     7     5     7   am
     8     7     4    1
     9     4    14    1
    10     4     1    1
    11    14    15    1
    12    15    20   ar
    13    15    16   ar
    14    16    17   ar
    15    17    18   ar
    16    18    19   ar
    17    19    20   ar
    18     1    21    1
    19     1     2    1
    20    21    22    1
    21    22    23    1
    22    22    34    1
    23    22    24    1
    24    34    35    1
    25    35    40   ar
    26    35    36   ar
    27    36    37   ar
    28    37    38   ar
    29    38    39   ar
    30    39    40   ar
    31    24    25   am
    32    25    26    2
    33    25    28    1
    34    28    33   ar
    35    28    29   ar
    36    29    30   ar
    37    30    31   ar
    38    31    32   ar
    39    32    33   ar
    40     7     8    1
    41    24    27    1
    42     2     3    1
#	Name:			ZINC13995235
#	Creating user name:	trannguyen
#	Creation time:		Thu Dec  1 16:45:04 2022


#	Modifying user name:	trannguyen
#	Modification time:	Thu Dec  1 16:45:04 2022

@<TRIPOS>MOLECULE
ZINC13995235
 31 33 0 0 0
SMALL
GASTEIGER

@<TRIPOS>ATOM
      1 C           2.1048   56.8746   77.5972 C.3     1  UNL1        0.0382
      2 C           1.4704   57.9009   76.6942 C.ar    1  UNL1        0.0090
      3 C           0.1618   58.2505   76.6054 C.ar    1  UNL1        0.0100
      4 C          -0.1742   59.2802   75.6403 C.ar    1  UNL1        0.0954
      5 C           0.8743   59.8053   74.8968 C.ar    1  UNL1        0.0867
      6 S           2.2569   58.9478   75.4877 S.2     1  UNL1       -0.0763
      7 C          -0.8729   57.6117   77.4530 C.ar    1  UNL1        0.0004
      8 C          -1.5525   56.4830   76.9967 C.ar    1  UNL1        0.0000
      9 C          -2.5114   55.8898   77.7923 C.ar    1  UNL1        0.0000
     10 C          -2.8065   56.4193   79.0357 C.ar    1  UNL1        0.0000
     11 C          -2.1389   57.5417   79.4918 C.ar    1  UNL1        0.0000
     12 C          -1.1744   58.1404   78.7074 C.ar    1  UNL1        0.0000
     13 N           0.8257   60.7838   73.9167 N.am    1  UNL1       -0.2781
     14 C           0.7379   60.4333   72.6183 C.2     1  UNL1        0.2379
     15 O           0.7016   59.2615   72.3077 O.2     1  UNL1       -0.2738
     16 H           0.8553   61.7350   74.1689 H       1  UNL1        0.1553
     17 C           0.6850   61.4974   71.5525 C.3     1  UNL1        0.1501
     18 S           2.0881   61.2945   70.4273 S.3     1  UNL1       -0.0658
     19 C           2.2434   62.9453   69.8311 C.ar    1  UNL1        0.1934
     20 N           1.2702   63.7153   69.4027 N.ar    1  UNL1       -0.1224
     21 N           1.7414   64.8565   69.0456 N.ar    1  UNL1       -0.1328
     22 C           3.0330   64.8801   69.2156 C.ar    1  UNL1        0.1432
     23 N           3.3993   63.6637   69.7219 N.ar    1  UNL1       -0.2918
     24 C           4.7513   63.2229   70.0741 C.3     1  UNL1        0.1337
     25 C           3.9529   66.0342   68.9104 C.3     1  UNL1        0.0588
     26 C           4.6872   65.7670   67.5950 C.3     1  UNL1        0.0080
     27 C           3.1335   67.3202   68.7850 C.3     1  UNL1        0.0080
     28 C          -1.5511   59.7385   75.4554 C.2     1  UNL1        0.3431
     29 O          -2.0473   60.5114   76.2532 O.2     1  UNL1       -0.2448
     30 O          -2.2687   59.3085   74.3971 O.3     1  UNL1       -0.4413
     31 C          -3.5112   58.6133   74.6820 C.3     1  UNL1        0.2560
@<TRIPOS>BOND
     1     1     2    1
     2     2     6   ar
     3     2     3   ar
     4     3     4   ar
     5     3     7    1
     6     4     5   ar
     7     4    28    1
     8     5     6   ar
     9     5    13    1
    10    13    14   am
    11    14    15    2
    12    14    17    1
    13    17    18    1
    14    18    19    1
    15    19    23   ar
    16    19    20   ar
    17    20    21   ar
    18    21    22   ar
    19    22    23   ar
    20    22    25    1
    21    23    24    1
    22    25    26    1
    23    25    27    1
    24    28    29    2
    25    28    30    1
    26    30    31    1
    27     7    12   ar
    28     7     8   ar
    29     8     9   ar
    30     9    10   ar
    31    10    11   ar
    32    11    12   ar
    33    13    16    1
#	Name:			ZINC14036261
#	Creating user name:	trannguyen
#	Creation time:		Thu Dec  1 16:45:04 2022


#	Modifying user name:	trannguyen
#	Modification time:	Thu Dec  1 16:45:04 2022

@<TRIPOS>MOLECULE
ZINC14036261
 38 39 0 0 0
SMALL
GASTEIGER

@<TRIPOS>ATOM
      1 N          -0.5315   62.1256   72.1432 N.am    1  UNL1       -0.2454
      2 H          -1.2935   62.7457   72.2076 H       1  UNL1        0.1718
      3 N           0.7221   62.5965   71.7317 N.am    1  UNL1       -0.2316
      4 C           0.8745   63.1177   70.4981 C.2     1  UNL1        0.2825
      5 O          -0.0737   63.1789   69.7444 O.2     1  UNL1       -0.2695
      6 H           1.4917   62.5467   72.3435 H       1  UNL1        0.1729
      7 C           2.2230   63.6242   70.0554 C.3     1  UNL1        0.2909
      8 O           2.1790   65.0469   69.9281 O.3     1  UNL1       -0.4656
      9 C           2.8809   65.5957   68.9045 C.ar    1  UNL1        0.1393
     10 C           2.6335   66.9085   68.5199 C.ar    1  UNL1        0.0371
     11 C           3.3468   67.4706   67.4850 C.ar    1  UNL1        0.0096
     12 C           4.3136   66.7160   66.8143 C.ar    1  UNL1        0.0758
     13 C           4.5554   65.3946   67.2008 C.ar    1  UNL1        0.0096
     14 C           3.8412   64.8417   68.2398 C.ar    1  UNL1        0.0371
     15 C           5.0767   67.3126   65.7022 C.2     1  UNL1        0.3412
     16 O           6.1542   66.8480   65.3867 O.2     1  UNL1       -0.2449
     17 O           4.5790   68.3728   65.0360 O.3     1  UNL1       -0.4454
     18 C           5.4086   68.9423   63.9892 C.3     1  UNL1        0.2088
     19 C           4.6241   68.9716   62.6760 C.3     1  UNL1        0.0475
     20 C           3.1500   68.6722   62.9558 C.3     1  UNL1        0.0040
     21 C          -0.6945   60.8236   72.4510 C.2     1  UNL1        0.1533
     22 S           0.5933   59.7205   72.2147 S.2     1  UNL1       -0.0170
     23 C          -2.1663   60.5781   74.2462 C.2     1  UNL1        0.2537
     24 O          -1.3690   61.1344   74.9759 O.2     1  UNL1       -0.2697
     25 N          -1.8712   60.3899   72.9447 N.am    1  UNL1       -0.2626
     26 H          -2.5152   59.9357   72.3546 H       1  UNL1        0.1569
     27 C          -4.4983   61.0191   75.0118 C.ar    1  UNL1        0.1428
     28 C          -5.7074   60.5666   75.5189 C.ar    1  UNL1        0.0370
     29 C          -5.8825   59.2260   75.7981 C.ar    1  UNL1        0.0031
     30 C          -4.8553   58.3233   75.5750 C.ar    1  UNL1        0.0003
     31 C          -3.6492   58.7542   75.0672 C.ar    1  UNL1        0.0076
     32 C          -3.4563   60.1091   74.7850 C.ar    1  UNL1        0.0876
     33 O          -4.3250   62.3359   74.7361 O.3     1  UNL1       -0.4753
     34 C          -4.7769   63.2694   75.7191 C.3     1  UNL1        0.2054
     35 C          -5.6646   64.3223   75.0525 C.3     1  UNL1        0.0473
     36 C          -6.9145   64.5493   75.9052 C.3     1  UNL1        0.0038
     37 C          -7.9557   63.3085   74.0030 C.3     1  UNL1        0.0000
     38 C          -7.9891   63.5320   75.5161 C.3     1  UNL1        0.0001
@<TRIPOS>BOND
     1    37    38    1
     2    38    36    1
     3    36    35    1
     4    35    34    1
     5    34    33    1
     6    33    27    1
     7    27    32   ar
     8    27    28   ar
     9    28    29   ar
    10    29    30   ar
    11    30    31   ar
    12    31    32   ar
    13    32    23    1
    14    23    24    2
    15    23    25   am
    16    25    21    1
    17    21    22    2
    18    21     1    1
    19     1     3    1
    20     3     4   am
    21     4     5    2
    22     4     7    1
    23     7     8    1
    24     8     9    1
    25     9    14   ar
    26     9    10   ar
    27    10    11   ar
    28    11    12   ar
    29    12    13   ar
    30    12    15    1
    31    13    14   ar
    32    15    16    2
    33    15    17    1
    34    17    18    1
    35    18    19    1
    36    19    20    1
    37    25    26    1
    38     1     2    1
    39     3     6    1
#	Name:			ZINC14175244
#	Creating user name:	trannguyen
#	Creation time:		Thu Dec  1 16:45:04 2022


#	Modifying user name:	trannguyen
#	Modification time:	Thu Dec  1 16:45:04 2022

@<TRIPOS>MOLECULE
ZINC14175244
 35 37 0 0 0
SMALL
GASTEIGER

@<TRIPOS>ATOM
      1 C           0.9051   59.6402   75.1304 C.ar    1  UNL1        0.0833
      2 C           1.2509   60.2725   73.9309 C.ar    1  UNL1        0.0257
      3 C           0.2453   60.7709   73.1110 C.ar    1  UNL1        0.0817
      4 C          -1.0956   60.6127   73.5349 C.ar    1  UNL1        0.0626
      5 C          -2.3418   60.9785   72.9845 C.ar    1  UNL1        0.1234
      6 N          -3.2848   60.5847   73.7926 N.ar    1  UNL1       -0.1664
      7 N          -2.7194   59.9553   74.9078 N.ar    1  UNL1       -0.2360
      8 C          -1.3566   59.9632   74.7579 C.ar    1  UNL1        0.1610
      9 N          -0.3582   59.5072   75.5002 N.ar    1  UNL1       -0.2268
     10 C           4.8507   56.6232   76.1771 C.3     1  UNL1        0.0381
     11 C           3.7958   57.6757   76.4016 C.ar    1  UNL1        0.0074
     12 C           2.8383   58.1109   75.5526 C.ar    1  UNL1        0.0038
     13 C           1.9763   59.1086   76.0047 C.ar    1  UNL1        0.0199
     14 C           2.1406   59.5798   77.2757 C.ar    1  UNL1        0.0087
     15 S           3.4884   58.6582   77.8576 S.2     1  UNL1       -0.0956
     16 C           1.3462   60.6394   77.9951 C.3     1  UNL1        0.0382
     17 C          -3.4565   59.3817   76.0365 C.3     1  UNL1        0.1069
     18 C          -4.3779   58.2696   75.5314 C.3     1  UNL1        0.0264
     19 C          -4.2939   60.4732   76.7061 C.3     1  UNL1        0.0264
     20 C           0.5665   61.4458   71.8363 C.2     1  UNL1        0.3417
     21 O          -0.2606   62.1550   71.2994 O.2     1  UNL1       -0.2449
     22 O           1.7767   61.2747   71.2698 O.3     1  UNL1       -0.4397
     23 C           1.8902   61.5755   69.8538 C.3     1  UNL1        0.2448
     24 C           2.4053   60.3416   69.1101 C.3     1  UNL1        0.0575
     25 C           2.8532   62.7180   69.6586 C.2     1  UNL1        0.2696
     26 O           3.9112   62.7270   70.2504 O.2     1  UNL1       -0.2708
     27 N           2.5381   63.7301   68.8261 N.am    1  UNL1       -0.2367
     28 C           3.3994   64.7520   68.6515 C.2     1  UNL1        0.3065
     29 O           4.4601   64.7610   69.2448 O.2     1  UNL1       -0.2524
     30 N           3.0844   65.7640   67.8190 N.am    1  UNL1       -0.2903
     31 H           1.6788   63.7228   68.3456 H       1  UNL1        0.1592
     32 H           2.2252   65.7567   67.3384 H       1  UNL1        0.1509
     33 C           4.0205   66.8748   67.6292 C.3     1  UNL1        0.0732
     34 C           4.9968   66.5321   66.5020 C.3     1  UNL1        0.0213
     35 C           3.2427   68.1403   67.2630 C.3     1  UNL1        0.0213
@<TRIPOS>BOND
     1    10    11    1
     2    11    15   ar
     3    11    12   ar
     4    12    13   ar
     5    13    14   ar
     6    13     1    1
     7    14    15   ar
     8    14    16    1
     9     1     9   ar
    10     1     2   ar
    11     2     3   ar
    12     3     4   ar
    13     3    20    1
    14     4     8   ar
    15     4     5   ar
    16     5     6   ar
    17     6     7   ar
    18     7     8   ar
    19     7    17    1
    20     8     9   ar
    21    17    18    1
    22    17    19    1
    23    20    21    2
    24    20    22    1
    25    22    23    1
    26    23    24    1
    27    23    25    1
    28    25    26    2
    29    25    27   am
    30    27    28   am
    31    28    29    2
    32    28    30   am
    33    30    33    1
    34    33    34    1
    35    33    35    1
    36    27    31    1
    37    30    32    1
#	Name:			ZINC14185532
#	Creating user name:	trannguyen
#	Creation time:		Thu Dec  1 16:45:04 2022


#	Modifying user name:	trannguyen
#	Modification time:	Thu Dec  1 16:45:04 2022

@<TRIPOS>MOLECULE
ZINC14185532
 26 28 0 0 0
SMALL
GASTEIGER

@<TRIPOS>ATOM
      1 C           2.0609   61.9772   70.2323 C.ar    1  UNL1        0.1241
      2 C           2.2432   61.2029   69.1187 C.ar    1  UNL1        0.0603
      3 S           3.5629   62.0933   68.3052 S.2     1  UNL1       -0.0508
      4 C           3.7322   63.4002   69.5125 C.ar    1  UNL1        0.1637
      5 N           2.8153   63.0621   70.4002 N.ar    1  UNL1       -0.2209
      6 C           0.0951   60.7668   73.0292 C.ar    1  UNL1        0.1427
      7 C          -0.8770   61.3961   72.3420 C.ar    1  UNL1        0.0379
      8 C          -0.2781   61.9480   71.1908 C.ar    1  UNL1        0.0419
      9 C           1.0392   61.6143   71.2363 C.ar    1  UNL1        0.1630
     10 O           1.2522   60.9004   72.3582 O.2     1  UNL1       -0.4545
     11 C          -0.0845   60.0335   74.3335 C.3     1  UNL1        0.1548
     12 C           2.9336   59.2757   76.5633 C.3     1  UNL1        0.0946
     13 C           1.6947   59.1131   75.7209 C.2     1  UNL1        0.2233
     14 O           1.2147   58.0118   75.5545 O.2     1  UNL1       -0.2751
     15 N           1.1200   60.1916   75.1524 N.am    1  UNL1       -0.2979
     16 H           1.5096   61.0856   75.2875 H       1  UNL1        0.1498
     17 N           4.6007   64.4802   69.5181 N.pl3   1  UNL1       -0.2927
     18 H           5.4130   64.4558   70.0738 H       1  UNL1        0.1541
     19 C           4.3232   65.6051   68.7343 C.ar    1  UNL1        0.0507
     20 C           3.3367   66.5005   69.1276 C.ar    1  UNL1        0.0170
     21 C           3.0639   67.6107   68.3526 C.ar    1  UNL1        0.0318
     22 C           3.7728   67.8320   67.1839 C.ar    1  UNL1        0.1507
     23 C           4.7573   66.9405   66.7893 C.ar    1  UNL1        0.0863
     24 C           5.0374   65.8312   67.5651 C.ar    1  UNL1        0.0283
     25 CL          5.6449   67.2208   65.3239 Cl      1  UNL1       -0.0799
     26 F           3.5045   68.9189   66.4278 F       1  UNL1       -0.2033
@<TRIPOS>BOND
     1    12    13    1
     2    13    14    2
     3    13    15   am
     4    15    11    1
     5    11     6    1
     6     6    10   ar
     7     6     7   ar
     8     7     8   ar
     9     8     9   ar
    10     9    10   ar
    11     9     1    1
    12     1     5   ar
    13     1     2   ar
    14     2     3   ar
    15     3     4   ar
    16     4     5   ar
    17     4    17    1
    18    17    19    1
    19    19    24   ar
    20    19    20   ar
    21    20    21   ar
    22    21    22   ar
    23    22    23   ar
    24    22    26    1
    25    23    24   ar
    26    23    25    1
    27    15    16    1
    28    17    18    1
#	Name:			ZINC14457448
#	Creating user name:	trannguyen
#	Creation time:		Thu Dec  1 16:45:04 2022


#	Modifying user name:	trannguyen
#	Modification time:	Thu Dec  1 16:45:04 2022

@<TRIPOS>MOLECULE
ZINC14457448
 29 32 0 0 0
SMALL
GASTEIGER

@<TRIPOS>ATOM
      1 C          -2.3517   59.5532   74.4218 C.ar    1  UNL1        0.1382
      2 C          -1.7012   59.9393   75.5845 C.ar    1  UNL1        0.0381
      3 C          -2.4229   60.0916   76.7516 C.ar    1  UNL1        0.0171
      4 C          -3.7924   59.8589   76.7592 C.ar    1  UNL1        0.0413
      5 C          -4.4486   59.4745   75.6008 C.ar    1  UNL1       -0.0022
      6 C          -3.7164   59.3230   74.4308 C.ar    1  UNL1        0.0342
      7 C          -5.9218   59.2165   75.5627 C.3     1  UNL1        0.0474
      8 C          -6.6612   60.3481   74.8887 C.2     1  UNL1       -0.0265
      9 C          -7.8172   60.5461   75.4744 C.2     1  UNL1       -0.0303
     10 C          -8.0083   59.5679   76.6166 C.3     1  UNL1        0.0283
     11 C          -6.5549   59.1320   76.9647 C.3     1  UNL1        0.0346
     12 C          -5.9608   60.2117   77.8737 C.3     1  UNL1        0.0928
     13 N          -4.5090   60.0194   77.9536 N.pl3   1  UNL1       -0.3308
     14 H          -4.0492   60.0033   78.8240 H       1  UNL1        0.1471
     15 C          -6.2588   61.5734   77.3013 C.ar    1  UNL1       -0.0013
     16 C          -7.4919   62.1589   77.5203 C.ar    1  UNL1        0.0006
     17 C          -7.7721   63.4057   76.9930 C.ar    1  UNL1        0.0398
     18 C          -6.8122   64.0760   76.2517 C.ar    1  UNL1        0.1721
     19 C          -5.5712   63.4865   76.0309 C.ar    1  UNL1        0.1675
     20 C          -5.2988   62.2342   76.5580 C.ar    1  UNL1        0.0371
     21 O          -4.6279   64.1378   75.2991 O.3     1  UNL1       -0.5029
     22 H          -4.8132   64.9846   74.9431 H       1  UNL1        0.2923
     23 O          -7.0843   65.3048   75.7366 O.3     1  UNL1       -0.4684
     24 C          -7.8383   65.3473   74.5234 C.3     1  UNL1        0.2526
     25 O          -1.6462   59.4008   73.2691 O.3     1  UNL1       -0.4792
     26 C          -0.6576   60.3905   72.9778 C.3     1  UNL1        0.1660
     27 C          -1.3002   61.5392   72.1977 C.3     1  UNL1        0.0472
     28 C           1.0491   60.8246   71.2056 C.3     1  UNL1        0.0038
     29 C           0.4583   59.7654   72.1383 C.3     1  UNL1        0.0435
@<TRIPOS>BOND
     1    28    29    1
     2    29    26    1
     3    26    27    1
     4    26    25    1
     5    25     1    1
     6     1     6   ar
     7     1     2   ar
     8     2     3   ar
     9     3     4   ar
    10     4    13    1
    11     4     5   ar
    12     5     6   ar
    13     5     7    1
    14     7    11    1
    15     7     8    1
    16     8     9    2
    17     9    10    1
    18    10    11    1
    19    11    12    1
    20    12    13    1
    21    12    15    1
    22    15    20   ar
    23    15    16   ar
    24    16    17   ar
    25    17    18   ar
    26    18    19   ar
    27    18    23    1
    28    19    20   ar
    29    19    21    1
    30    23    24    1
    31    13    14    1
    32    21    22    1
#	Name:			ZINC14534891
#	Creating user name:	trannguyen
#	Creation time:		Thu Dec  1 16:45:04 2022


#	Modifying user name:	trannguyen
#	Modification time:	Thu Dec  1 16:45:04 2022

@<TRIPOS>MOLECULE
ZINC14534891
 30 33 0 0 0
SMALL
GASTEIGER

@<TRIPOS>ATOM
      1 C          -3.9617   60.4132   76.2255 C.3     1  UNL1        0.1120
      2 C          -2.6595   59.6155   76.2866 C.3     1  UNL1        0.1045
      3 C          -1.7908   59.9455   75.0977 C.ar    1  UNL1        0.0476
      4 C          -2.2904   60.5537   73.9994 C.ar    1  UNL1        0.0447
      5 C          -1.4482   60.8330   72.9105 C.ar    1  UNL1        0.0073
      6 C          -0.1100   60.4890   72.9763 C.ar    1  UNL1        0.0561
      7 C           0.3741   59.8635   74.1512 C.ar    1  UNL1        0.2608
      8 O           1.5498   59.5506   74.2395 O.2     1  UNL1       -0.2670
      9 N          -0.4686   59.6170   75.1681 N.ar    1  UNL1       -0.2949
     10 C          -3.7393   60.9510   73.8895 C.3     1  UNL1        0.1339
     11 N          -4.5424   60.2199   74.8821 N.4     1  UNL1        0.2796
     12 H          -4.5365   59.2258   74.6538 H       1  UNL1        0.2071
     13 C           0.7990   60.7697   71.8404 C.ar    1  UNL1        0.0044
     14 C           1.3810   59.7175   71.1335 C.ar    1  UNL1        0.0024
     15 C           2.2267   59.9839   70.0769 C.ar    1  UNL1        0.0293
     16 C           2.4984   61.2944   69.7173 C.ar    1  UNL1        0.1361
     17 C           1.9229   62.3429   70.4164 C.ar    1  UNL1        0.0056
     18 C           1.0711   62.0865   71.4712 C.ar    1  UNL1       -0.0019
     19 C           2.2230   63.7656   70.0205 C.3     1  UNL1        0.0334
     20 F           3.3278   61.5503   68.6820 F       1  UNL1       -0.2045
     21 C          -5.9417   60.7043   74.8582 C.3     1  UNL1        0.1057
     22 C          -7.3423   62.7616   74.6372 C.3     1  UNL1        0.0063
     23 C          -5.9817   62.2180   75.0776 C.3     1  UNL1        0.0609
     24 C           0.0441   58.9740   76.3805 C.3     1  UNL1        0.1369
     25 C           0.9100   59.9475   77.1377 C.ar    1  UNL1        0.0196
     26 C           2.2059   59.6053   77.4930 C.ar    1  UNL1        0.0007
     27 C           2.9661   60.5326   78.1887 C.ar    1  UNL1        0.0204
     28 C           2.4108   61.7588   78.5031 C.ar    1  UNL1        0.0989
     29 N           1.1746   62.0500   78.1489 N.ar    1  UNL1       -0.2426
     30 C           0.4228   61.1927   77.4863 C.ar    1  UNL1        0.0965
@<TRIPOS>UNITY_ATOM_ATTR
11 1
charge 1
@<TRIPOS>BOND
     1    22    23    1
     2    23    21    1
     3    21    11    1
     4     1     2    1
     5     1    11    1
     6     2     3    1
     7     3     9   ar
     8     3     4   ar
     9     4     5   ar
    10     4    10    1
    11     5     6   ar
    12     6     7   ar
    13     6    13    1
    14     7     8    2
    15     7     9   ar
    16     9    24    1
    17    24    25    1
    18    25    30   ar
    19    25    26   ar
    20    26    27   ar
    21    27    28   ar
    22    28    29   ar
    23    29    30   ar
    24    13    18   ar
    25    13    14   ar
    26    14    15   ar
    27    15    16   ar
    28    16    17   ar
    29    16    20    1
    30    17    18   ar
    31    17    19    1
    32    10    11    1
    33    11    12    1
#	Name:			ZINC14540340
#	Creating user name:	trannguyen
#	Creation time:		Thu Dec  1 16:45:04 2022


#	Modifying user name:	trannguyen
#	Modification time:	Thu Dec  1 16:45:04 2022

@<TRIPOS>MOLECULE
ZINC14540340
 28 31 0 0 0
SMALL
GASTEIGER

@<TRIPOS>ATOM
      1 N           2.5280   60.0403   69.6930 N.ar    1  UNL1       -0.2551
      2 C           1.6594   60.0747   70.7168 C.ar    1  UNL1        0.0536
      3 C           1.2193   61.3525   70.8269 C.ar    1  UNL1        0.0205
      4 C           1.8708   62.0738   69.8124 C.ar    1  UNL1        0.1515
      5 N           2.6431   61.2130   69.1718 N.ar    1  UNL1       -0.1653
      6 C           0.2312   61.8301   71.8548 C.3     1  UNL1        0.0842
      7 C           0.1380   60.7711   72.9619 C.3     1  UNL1        0.0608
      8 C          -0.0732   59.3910   72.3323 C.3     1  UNL1        0.0616
      9 C           1.2086   58.9507   71.6138 C.3     1  UNL1        0.0510
     10 C           1.7213   63.5135   69.5184 C.2     1  UNL1        0.2682
     11 O           0.6429   63.9542   69.1705 O.2     1  UNL1       -0.2682
     12 N           2.7804   64.3388   69.6357 N.am    1  UNL1       -0.2748
     13 C           4.1172   63.8041   69.9287 C.3     1  UNL1        0.0938
     14 C           5.0948   64.3214   68.8625 C.3     1  UNL1        0.0216
     15 C           5.0261   65.8496   68.8143 C.3     1  UNL1        0.0035
     16 C           3.6124   66.2863   68.4236 C.3     1  UNL1        0.0216
     17 C           2.6191   65.7907   69.4793 C.3     1  UNL1        0.0938
     18 N          -0.9932   61.0844   73.8450 N.4     1  UNL1        0.2799
     19 C          -0.9505   60.2675   75.0653 C.3     1  UNL1        0.1673
     20 H          -0.9141   62.0634   74.1202 H       1  UNL1        0.2071
     21 C          -2.2722   60.9148   73.1426 C.3     1  UNL1        0.1333
     22 C          -3.3294   60.4762   74.1231 C.ar    1  UNL1        0.0396
     23 C          -3.4691   59.1414   74.4535 C.ar    1  UNL1        0.0089
     24 C          -4.4263   58.7811   75.3429 C.ar    1  UNL1        0.0353
     25 S          -5.1784   60.3526   75.7328 S.2     1  UNL1       -0.0861
     26 C          -4.1611   61.3842   74.6898 C.ar    1  UNL1        0.0368
     27 C           3.5429   57.9420   70.4337 C.3     1  UNL1        0.0284
     28 C           3.2405   58.8446   69.2359 C.3     1  UNL1        0.1271
@<TRIPOS>UNITY_ATOM_ATTR
18 1
charge 1
@<TRIPOS>BOND
     1    27    28    1
     2    28     1    1
     3     1     5   ar
     4     1     2   ar
     5     2     9    1
     6     2     3   ar
     7     3     4   ar
     8     3     6    1
     9     4     5   ar
    10     4    10    1
    11    10    11    2
    12    10    12   am
    13    12    17    1
    14    12    13    1
    15    13    14    1
    16    14    15    1
    17    15    16    1
    18    16    17    1
    19     6     7    1
    20     7     8    1
    21     7    18    1
    22     8     9    1
    23    18    19    1
    24    18    21    1
    25    21    22    1
    26    22    26   ar
    27    22    23   ar
    28    23    24   ar
    29    24    25   ar
    30    25    26   ar
    31    18    20    1
#	Name:			ZINC14579198
#	Creating user name:	trannguyen
#	Creation time:		Thu Dec  1 16:45:04 2022


#	Modifying user name:	trannguyen
#	Modification time:	Thu Dec  1 16:45:04 2022

@<TRIPOS>MOLECULE
ZINC14579198
 40 43 0 0 0
SMALL
GASTEIGER

@<TRIPOS>ATOM
      1 C          -2.7380   58.8555   75.1985 C.3     1  UNL1        0.1504
      2 C          -3.9108   59.7782   75.4086 C.ar    1  UNL1       -0.0035
      3 C          -3.9538   60.5994   76.5198 C.ar    1  UNL1       -0.0030
      4 C          -5.0276   61.4489   76.7102 C.ar    1  UNL1       -0.0003
      5 C          -6.0629   61.4703   75.7945 C.ar    1  UNL1       -0.0000
      6 C          -6.0221   60.6456   74.6858 C.ar    1  UNL1       -0.0003
      7 C          -4.9463   59.7993   74.4931 C.ar    1  UNL1       -0.0030
      8 N          -1.6938   57.0375   76.5113 N.am    1  UNL1       -0.2835
      9 C          -2.8102   57.7185   76.1850 C.2     1  UNL1        0.2403
     10 O          -3.8729   57.4163   76.6853 O.2     1  UNL1       -0.2735
     11 H          -0.8251   57.3067   76.1343 H       1  UNL1        0.1549
     12 C          -1.9860   54.6699   76.8877 C.ar    1  UNL1       -0.0090
     13 C          -2.0540   53.5954   77.7532 C.ar    1  UNL1       -0.0031
     14 C          -1.9192   53.7930   79.1149 C.ar    1  UNL1       -0.0006
     15 C          -1.7092   55.0654   79.6146 C.ar    1  UNL1       -0.0031
     16 C          -1.6341   56.1429   78.7542 C.ar    1  UNL1       -0.0087
     17 C          -1.7695   55.9479   77.3858 C.ar    1  UNL1        0.0422
     18 C          -1.4047   57.5290   79.2996 C.3     1  UNL1        0.0323
     19 C          -3.0921   53.2830   75.1551 C.3     1  UNL1        0.0051
     20 C          -2.1402   54.4546   75.4043 C.3     1  UNL1        0.0276
     21 S          -1.1937   59.7743   75.4469 S.3     1  UNL1       -0.1007
     22 C          -0.8090   60.4021   73.8462 C.ar    1  UNL1        0.0272
     23 C          -1.6815   61.2819   73.2152 C.ar    1  UNL1        0.0063
     24 C          -1.3804   61.7743   71.9605 C.ar    1  UNL1        0.0018
     25 C          -0.2087   61.3995   71.3306 C.ar    1  UNL1        0.0147
     26 C           0.6651   60.5166   71.9530 C.ar    1  UNL1        0.0500
     27 C           0.3659   60.0194   73.2133 C.ar    1  UNL1        0.0208
     28 N           1.8480   60.1339   71.3121 N.am    1  UNL1       -0.2956
     29 H           2.2110   59.2290   71.4484 H       1  UNL1        0.1539
     30 C           2.4907   61.0037   70.5080 C.2     1  UNL1        0.1389
     31 S           2.4113   60.8173   68.8081 S.2     1  UNL1       -0.0182
     32 N           3.1960   62.0205   71.0421 N.am    1  UNL1       -0.2957
     33 H           3.5418   61.9503   71.9613 H       1  UNL1        0.1539
     34 C           3.4365   63.1755   70.2907 C.ar    1  UNL1        0.0495
     35 C           4.7311   63.4969   69.9037 C.ar    1  UNL1        0.0143
     36 C           4.9651   64.6378   69.1613 C.ar    1  UNL1       -0.0030
     37 C           3.9122   65.4598   68.8035 C.ar    1  UNL1       -0.0218
     38 C           2.6221   65.1426   69.1872 C.ar    1  UNL1       -0.0030
     39 C           2.3813   64.0034   69.9300 C.ar    1  UNL1        0.0143
     40 C           4.1714   66.7041   67.9939 C.3     1  UNL1        0.0310
@<TRIPOS>BOND
     1    19    20    1
     2    20    12    1
     3    12    17   ar
     4    12    13   ar
     5    13    14   ar
     6    14    15   ar
     7    15    16   ar
     8    16    17   ar
     9    16    18    1
    10    17     8    1
    11     8     9   am
    12     9    10    2
    13     9     1    1
    14     1     2    1
    15     1    21    1
    16     2     7   ar
    17     2     3   ar
    18     3     4   ar
    19     4     5   ar
    20     5     6   ar
    21     6     7   ar
    22    21    22    1
    23    22    27   ar
    24    22    23   ar
    25    23    24   ar
    26    24    25   ar
    27    25    26   ar
    28    26    27   ar
    29    26    28    1
    30    28    30    1
    31    30    31    2
    32    30    32    1
    33    32    34    1
    34    34    39   ar
    35    34    35   ar
    36    35    36   ar
    37    36    37   ar
    38    37    38   ar
    39    37    40    1
    40    38    39   ar
    41     8    11    1
    42    28    29    1
    43    32    33    1
#	Name:			ZINC14580721
#	Creating user name:	trannguyen
#	Creation time:		Thu Dec  1 16:45:04 2022


#	Modifying user name:	trannguyen
#	Modification time:	Thu Dec  1 16:45:04 2022

@<TRIPOS>MOLECULE
ZINC14580721
 38 41 0 0 0
SMALL
GASTEIGER

@<TRIPOS>ATOM
      1 C           1.5759   60.9779   70.4845 C.3     1  UNL1        0.1283
      2 C           1.8898   62.1647   69.6104 C.2     1  UNL1        0.2375
      3 O           1.3058   62.3143   68.5582 O.2     1  UNL1       -0.2738
      4 N           2.8197   63.0600   69.9982 N.am    1  UNL1       -0.2634
      5 H           3.2938   62.9386   70.8524 H       1  UNL1        0.1568
      6 C           3.1084   64.1515   69.1943 C.ar    1  UNL1        0.1655
      7 N           4.0617   64.2879   68.3033 N.ar    1  UNL1       -0.2239
      8 C           4.2274   65.4205   67.5840 C.ar    1  UNL1        0.0894
      9 C           5.2069   65.6941   66.6015 C.ar    1  UNL1        0.0228
     10 C           5.2379   66.9040   65.9597 C.ar    1  UNL1        0.0385
     11 C           4.3129   67.9031   66.2483 C.ar    1  UNL1        0.1391
     12 C           3.3389   67.6670   67.2070 C.ar    1  UNL1        0.0450
     13 C           3.3041   66.4561   67.8525 C.ar    1  UNL1        0.0527
     14 S           2.2764   65.7308   69.1075 S.2     1  UNL1       -0.0513
     15 O           4.3638   69.0964   65.5985 O.3     1  UNL1       -0.4754
     16 C           4.8429   69.0821   64.2522 C.3     1  UNL1        0.2055
     17 C           3.6862   68.7638   63.3026 C.3     1  UNL1        0.0512
     18 C           2.0843   58.5567   70.8333 C.3     1  UNL1        0.0014
     19 C           2.5850   59.8611   70.2098 C.3     1  UNL1        0.0204
     20 S           1.6760   61.4680   72.2282 S.3     1  UNL1       -0.1052
     21 C           0.1192   60.9846   72.8969 C.ar    1  UNL1        0.0269
     22 C          -1.0593   61.4483   72.3229 C.ar    1  UNL1        0.0062
     23 C          -2.2798   61.0695   72.8467 C.ar    1  UNL1        0.0018
     24 C          -2.3342   60.2283   73.9418 C.ar    1  UNL1        0.0147
     25 C          -1.1605   59.7608   74.5200 C.ar    1  UNL1        0.0500
     26 C           0.0675   60.1355   73.9940 C.ar    1  UNL1        0.0208
     27 N          -1.2170   58.9098   75.6287 N.am    1  UNL1       -0.2956
     28 H          -1.9625   58.2738   75.7235 H       1  UNL1        0.1539
     29 C          -0.2511   58.9605   76.5672 C.2     1  UNL1        0.1389
     30 S           0.1827   60.4606   77.2689 S.2     1  UNL1       -0.0182
     31 N           0.3735   57.8302   76.9532 N.am    1  UNL1       -0.2957
     32 H          -0.1128   57.1535   77.4775 H       1  UNL1        0.1539
     33 C           1.7126   57.6186   76.6089 C.ar    1  UNL1        0.0496
     34 C           2.0773   57.4982   75.2742 C.ar    1  UNL1        0.0146
     35 C           3.4011   57.2941   74.9374 C.ar    1  UNL1        0.0013
     36 C           4.3614   57.1990   75.9278 C.ar    1  UNL1        0.0001
     37 C           4.0007   57.3132   77.2580 C.ar    1  UNL1        0.0013
     38 C           2.6795   57.5227   77.6012 C.ar    1  UNL1        0.0146
@<TRIPOS>BOND
     1    18    19    1
     2    19     1    1
     3     1     2    1
     4     1    20    1
     5     2     3    2
     6     2     4   am
     7     4     6    1
     8     6    14   ar
     9     6     7   ar
    10     7     8   ar
    11     8    13   ar
    12     8     9   ar
    13     9    10   ar
    14    10    11   ar
    15    11    12   ar
    16    11    15    1
    17    12    13   ar
    18    13    14   ar
    19    15    16    1
    20    16    17    1
    21    20    21    1
    22    21    26   ar
    23    21    22   ar
    24    22    23   ar
    25    23    24   ar
    26    24    25   ar
    27    25    26   ar
    28    25    27    1
    29    27    29    1
    30    29    30    2
    31    29    31    1
    32    31    33    1
    33    33    38   ar
    34    33    34   ar
    35    34    35   ar
    36    35    36   ar
    37    36    37   ar
    38    37    38   ar
    39     4     5    1
    40    27    28    1
    41    31    32    1
#	Name:			ZINC14581021
#	Creating user name:	trannguyen
#	Creation time:		Thu Dec  1 16:45:04 2022


#	Modifying user name:	trannguyen
#	Modification time:	Thu Dec  1 16:45:04 2022

@<TRIPOS>MOLECULE
ZINC14581021
 37 40 0 0 0
SMALL
GASTEIGER

@<TRIPOS>ATOM
      1 C           2.1675   61.3316   69.9672 C.ar    1  UNL1        0.0269
      2 C           2.8365   60.3901   69.1927 C.ar    1  UNL1        0.0062
      3 C           2.7719   59.0507   69.5230 C.ar    1  UNL1        0.0018
      4 C           2.0342   58.6403   70.6173 C.ar    1  UNL1        0.0147
      5 C           1.3587   59.5749   71.3920 C.ar    1  UNL1        0.0500
      6 C           1.4253   60.9221   71.0666 C.ar    1  UNL1        0.0208
      7 N           0.6116   59.1582   72.4987 N.am    1  UNL1       -0.2956
      8 H           0.3935   58.2052   72.6149 H       1  UNL1        0.1539
      9 C           0.1903   60.0613   73.4062 C.2     1  UNL1        0.1389
     10 S          -1.3623   60.7665   73.2549 S.2     1  UNL1       -0.0182
     11 N           0.9915   60.4094   74.4326 N.am    1  UNL1       -0.2933
     12 H           1.6777   61.1042   74.3078 H       1  UNL1        0.1540
     13 C           0.8478   59.7823   75.6771 C.ar    1  UNL1        0.0840
     14 C           0.2698   60.4651   76.7374 C.ar    1  UNL1        0.0177
     15 C           0.1256   59.8430   77.9631 C.ar    1  UNL1        0.0015
     16 C           0.5645   58.5436   78.1386 C.ar    1  UNL1        0.0032
     17 C           1.1457   57.8584   77.0879 C.ar    1  UNL1        0.0382
     18 C           1.2901   58.4733   75.8548 C.ar    1  UNL1        0.1520
     19 O           1.8624   57.8010   74.8207 O.3     1  UNL1       -0.4702
     20 C           3.2019   57.3399   75.0088 C.3     1  UNL1        0.2525
     21 S           2.2557   63.0410   69.5494 S.3     1  UNL1       -0.1052
     22 C           4.8821   63.6372   70.0269 C.3     1  UNL1        0.0217
     23 C           3.9337   63.2461   68.8918 C.3     1  UNL1        0.1283
     24 C           3.9333   64.3276   67.8423 C.2     1  UNL1        0.2361
     25 O           3.2456   64.2098   66.8502 O.2     1  UNL1       -0.2739
     26 N           4.6970   65.4260   68.0063 N.am    1  UNL1       -0.2832
     27 H           5.3071   65.4909   68.7763 H       1  UNL1        0.1549
     28 C           4.6228   66.4745   67.0816 C.ar    1  UNL1        0.0518
     29 C           3.6905   67.4946   67.2659 C.ar    1  UNL1        0.0148
     30 C           3.6058   68.5244   66.3736 C.ar    1  UNL1        0.0027
     31 C           4.4582   68.5580   65.2677 C.ar    1  UNL1        0.0171
     32 C           4.6335   69.4862   64.1473 C.ar    1  UNL1        0.0199
     33 C           5.6243   68.9986   63.3847 C.ar    1  UNL1        0.0724
     34 N           6.0920   67.8279   63.9198 N.ar    1  UNL1       -0.3520
     35 C           5.4018   67.5327   65.0743 C.ar    1  UNL1        0.0579
     36 C           5.4756   66.4908   65.9922 C.ar    1  UNL1        0.0316
     37 H           6.8139   67.2792   63.5363 H       1  UNL1        0.1660
@<TRIPOS>BOND
     1    22    23    1
     2    23    24    1
     3    23    21    1
     4    24    25    2
     5    24    26   am
     6    26    28    1
     7    28    36   ar
     8    28    29   ar
     9    29    30   ar
    10    30    31   ar
    11    31    35   ar
    12    31    32   ar
    13    32    33   ar
    14    33    34   ar
    15    34    35   ar
    16    35    36   ar
    17    21     1    1
    18     1     6   ar
    19     1     2   ar
    20     2     3   ar
    21     3     4   ar
    22     4     5   ar
    23     5     6   ar
    24     5     7    1
    25     7     9    1
    26     9    10    2
    27     9    11    1
    28    11    13    1
    29    13    18   ar
    30    13    14   ar
    31    14    15   ar
    32    15    16   ar
    33    16    17   ar
    34    17    18   ar
    35    18    19    1
    36    19    20    1
    37    26    27    1
    38    34    37    1
    39     7     8    1
    40    11    12    1
#	Name:			ZINC14628876
#	Creating user name:	trannguyen
#	Creation time:		Thu Dec  1 16:45:04 2022


#	Modifying user name:	trannguyen
#	Modification time:	Thu Dec  1 16:45:04 2022

@<TRIPOS>MOLECULE
ZINC14628876
 11 12 0 0 0
SMALL
GASTEIGER

@<TRIPOS>ATOM
      1 C           5.3556   65.0772   68.7619 C.3     1  UNL1        0.0120
      2 C           3.9304   64.6053   69.0652 C.3     1  UNL1        0.0612
      3 C           3.0013   65.8193   69.1107 C.3     1  UNL1        0.1078
      4 C           2.0528   67.6161   67.8135 C.3     1  UNL1        0.2629
      5 O           2.0476   68.2579   66.5378 O.3     1  UNL1       -0.3059
      6 C           3.3077   68.8345   66.1806 C.3     1  UNL1        0.1541
      7 C           4.3668   67.7290   66.1565 C.3     1  UNL1        0.0873
      8 C           4.3814   67.0118   67.5110 C.3     1  UNL1        0.0605
      9 C           5.3557   65.8329   67.4311 C.3     1  UNL1        0.0554
     10 N           3.0209   66.5018   67.8019 N.4     1  UNL1        0.2955
     11 H           2.7610   65.8371   67.0732 H       1  UNL1        0.2093
@<TRIPOS>UNITY_ATOM_ATTR
10 1
charge 1
@<TRIPOS>BOND
     1     1     9    1
     2     1     2    1
     3     2     3    1
     4     3    10    1
     5     4     5    1
     6     4    10    1
     7     5     6    1
     8     6     7    1
     9     7     8    1
    10     8     9    1
    11     8    10    1
    12    10    11    1
#	Name:			ZINC14855822
#	Creating user name:	trannguyen
#	Creation time:		Thu Dec  1 16:45:04 2022


#	Modifying user name:	trannguyen
#	Modification time:	Thu Dec  1 16:45:04 2022

@<TRIPOS>MOLECULE
ZINC14855822
 25 27 0 0 0
SMALL
GASTEIGER

@<TRIPOS>ATOM
      1 C          -1.4848   60.0706   74.8169 C.ar    1  UNL1        0.0327
      2 C          -0.1068   59.9622   74.8737 C.ar    1  UNL1        0.0014
      3 C           0.6535   60.1955   73.7460 C.ar    1  UNL1       -0.0001
      4 C           0.0309   60.5527   72.5505 C.ar    1  UNL1        0.0006
      5 C          -1.3580   60.6659   72.5009 C.ar    1  UNL1       -0.0001
      6 C          -2.1081   60.4243   73.6337 C.ar    1  UNL1        0.0014
      7 C           0.8421   60.8105   71.3375 C.ar    1  UNL1        0.0096
      8 C           0.8211   62.0649   70.7346 C.ar    1  UNL1        0.0007
      9 C           1.5782   62.3009   69.6047 C.ar    1  UNL1        0.0000
     10 C           2.3628   61.2960   69.0631 C.ar    1  UNL1        0.0007
     11 C           2.3975   60.0466   69.6460 C.ar    1  UNL1        0.0103
     12 C           1.6426   59.7906   70.7917 C.ar    1  UNL1        0.0684
     13 C           1.6787   58.4969   71.4045 C.1     1  UNL1        0.1004
     14 N           1.7074   57.4706   71.8907 N.1     1  UNL1       -0.1908
     15 C          -2.3096   59.8086   76.0506 C.3     1  UNL1        0.1334
     16 C          -3.7072   57.8915   75.5662 C.3     1  UNL1        0.1679
     17 N          -3.6584   59.3671   75.6373 N.4     1  UNL1        0.2876
     18 H          -3.8641   59.7502   74.7147 H       1  UNL1        0.2077
     19 C          -4.6677   59.8602   76.5979 C.3     1  UNL1        0.1400
     20 C          -5.4834   60.9397   75.9344 C.ar    1  UNL1        0.0630
     21 C          -5.1789   62.2472   75.7494 C.ar    1  UNL1        0.0093
     22 C          -6.0903   63.0637   75.1057 C.ar    1  UNL1        0.0183
     23 C          -7.2625   62.5309   74.6784 C.ar    1  UNL1        0.0868
     24 S          -7.1008   60.8273   75.1871 S.2     1  UNL1       -0.0741
     25 CL         -8.5807   63.3062   73.8569 Cl      1  UNL1       -0.0752
@<TRIPOS>UNITY_ATOM_ATTR
17 1
charge 1
@<TRIPOS>BOND
     1    16    17    1
     2    15     1    1
     3    15    17    1
     4     1     6   ar
     5     1     2   ar
     6     2     3   ar
     7     3     4   ar
     8     4     5   ar
     9     4     7    1
    10     5     6   ar
    11     7    12   ar
    12     7     8   ar
    13     8     9   ar
    14     9    10   ar
    15    10    11   ar
    16    11    12   ar
    17    12    13    1
    18    13    14    3
    19    19    20    1
    20    19    17    1
    21    20    24   ar
    22    20    21   ar
    23    21    22   ar
    24    22    23   ar
    25    23    24   ar
    26    23    25    1
    27    17    18    1
#	Name:			ZINC14943514
#	Creating user name:	trannguyen
#	Creation time:		Thu Dec  1 16:45:04 2022


#	Modifying user name:	trannguyen
#	Modification time:	Thu Dec  1 16:45:04 2022

@<TRIPOS>MOLECULE
ZINC14943514
 50 54 0 0 0
SMALL
GASTEIGER

@<TRIPOS>ATOM
      1 C           1.8937   56.8094   78.1937 C.ar    1  UNL1       -0.0170
      2 C           2.3259   56.0701   79.2797 C.ar    1  UNL1       -0.0039
      3 C           1.5684   55.0109   79.7442 C.ar    1  UNL1        0.0010
      4 C           0.3745   54.6907   79.1275 C.ar    1  UNL1        0.0147
      5 C          -0.0593   55.4273   78.0334 C.ar    1  UNL1        0.0500
      6 C           0.7038   56.4910   77.5694 C.ar    1  UNL1        0.0107
      7 N          -1.2655   55.1021   77.4030 N.am    1  UNL1       -0.2826
      8 C          -1.2552   54.5231   76.1861 C.2     1  UNL1        0.2445
      9 O          -0.2060   54.3654   75.5983 O.2     1  UNL1       -0.2730
     10 H          -2.1217   55.2964   77.8485 H       1  UNL1        0.1549
     11 C          -2.5472   54.0713   75.5556 C.3     1  UNL1        0.1596
     12 N          -3.2598   55.2324   75.0167 N.am    1  UNL1       -0.2636
     13 C          -4.0837   55.9453   75.8102 C.2     1  UNL1        0.4017
     14 O          -4.2354   55.6250   76.9724 O.2     1  UNL1       -0.2264
     15 H          -3.1370   55.4919   74.0750 H       1  UNL1        0.1532
     16 O          -4.7386   57.0123   75.3149 O.3     1  UNL1       -0.4419
     17 C          -4.3279   58.3194   75.7957 C.3     1  UNL1        0.1378
     18 C          -2.8235   58.3109   76.0742 C.3     1  UNL1        0.0437
     19 C          -4.6441   59.3755   74.7348 C.3     1  UNL1        0.0437
     20 C          -5.0834   58.6491   77.0847 C.3     1  UNL1        0.0437
     21 C          -2.2457   53.0874   74.4235 C.3     1  UNL1        0.1021
     22 C          -2.4895   51.6797   74.9031 C.ar    1  UNL1        0.1651
     23 C          -1.5677   50.7015   74.9872 C.ar    1  UNL1        0.2203
     24 N          -2.2093   49.5934   75.4711 N.ar    1  UNL1       -0.2270
     25 C          -3.5035   49.9307   75.6576 C.ar    1  UNL1        0.3715
     26 N          -3.6637   51.1799   75.3158 N.ar    1  UNL1       -0.2329
     27 H          -1.8029   48.7146   75.6499 H       1  UNL1        0.3117
     28 H          -4.5125   51.6770   75.3547 H       1  UNL1        0.3113
     29 C           2.7224   57.9631   77.6905 C.3     1  UNL1        0.0497
     30 C           0.8406   59.6944   74.2924 C.ar    1  UNL1        0.1249
     31 C           0.3990   60.0389   75.5167 C.ar    1  UNL1        0.0164
     32 C           1.0048   59.4797   76.6641 C.ar    1  UNL1       -0.0861
     33 C           2.0456   58.5846   76.4962 C.ar    1  UNL1        0.0422
     34 C           2.4635   58.2702   75.1971 C.ar    1  UNL1        0.3405
     35 O           3.3829   57.4866   75.0263 O.2     1  UNL1       -0.2449
     36 O           1.8501   58.8255   74.1379 O.2     1  UNL1       -0.4257
     37 O           0.5745   59.8132   77.9036 O.co2   1  UNL1       -0.8729
     38 C           0.1887   60.2957   73.0740 C.3     1  UNL1        0.0619
     39 C          -2.1121   61.2429   72.8466 C.3     1  UNL1        0.0005
     40 C          -1.3050   59.9641   73.0787 C.3     1  UNL1        0.0079
     41 C           0.8352   59.7194   71.8127 C.3     1  UNL1        0.0339
     42 C           1.4103   60.8404   70.9860 C.ar    1  UNL1       -0.0218
     43 C           1.2345   62.1527   71.3833 C.ar    1  UNL1       -0.0043
     44 C           1.7661   63.1808   70.6274 C.ar    1  UNL1       -0.0003
     45 C           2.4646   62.8971   69.4688 C.ar    1  UNL1       -0.0000
     46 C           2.6360   61.5850   69.0688 C.ar    1  UNL1       -0.0003
     47 C           2.1088   60.5567   69.8273 C.ar    1  UNL1       -0.0043
     48 C           2.8653   59.0095   78.7976 C.3     1  UNL1        0.0083
     49 C           3.8547   60.1532   78.5653 C.3     1  UNL1        0.0007
     50 C           4.1865   59.0465   79.5684 C.3     1  UNL1        0.0007
@<TRIPOS>UNITY_ATOM_ATTR
26 1
charge 1
37 1
charge -1
@<TRIPOS>BOND
     1    39    40    1
     2    40    38    1
     3    38    41    1
     4    38    30    1
     5    41    42    1
     6    42    47   ar
     7    42    43   ar
     8    43    44   ar
     9    44    45   ar
    10    45    46   ar
    11    46    47   ar
    12    30    36   ar
    13    30    31   ar
    14    31    32   ar
    15    32    33   ar
    16    32    37    1
    17    33    34   ar
    18    33    29    1
    19    34    35    2
    20    34    36   ar
    21    29     1    1
    22    29    48    1
    23     1     6   ar
    24     1     2   ar
    25     2     3   ar
    26     3     4   ar
    27     4     5   ar
    28     5     6   ar
    29     5     7    1
    30     7     8   am
    31     8     9    2
    32     8    11    1
    33    11    21    1
    34    11    12    1
    35    21    22    1
    36    22    26   ar
    37    22    23   ar
    38    23    24   ar
    39    24    25   ar
    40    25    26   ar
    41    12    13   am
    42    13    14    2
    43    13    16    1
    44    16    17    1
    45    17    18    1
    46    17    19    1
    47    17    20    1
    48    48    50    1
    49    48    49    1
    50    49    50    1
    51     7    10    1
    52    24    27    1
    53    26    28    1
    54    12    15    1
#	Name:			ZINC14946391
#	Creating user name:	trannguyen
#	Creation time:		Thu Dec  1 16:45:04 2022


#	Modifying user name:	trannguyen
#	Modification time:	Thu Dec  1 16:45:04 2022

@<TRIPOS>MOLECULE
ZINC14946391
 42 43 0 0 0
SMALL
GASTEIGER

@<TRIPOS>ATOM
      1 C          -1.0120   60.4288   74.3071 C.3     1  UNL1        0.1000
      2 N          -0.0984   59.4383   74.8820 N.am    1  UNL1       -0.3000
      3 C           1.1851   59.7680   75.1276 C.2     1  UNL1        0.2489
      4 O           1.5847   60.8876   74.8720 O.2     1  UNL1       -0.2700
      5 H          -0.4220   58.5319   75.0891 H       1  UNL1        0.1498
      6 C           2.1053   58.7706   75.7067 C.ar    1  UNL1        0.0900
      7 C           2.5948   58.9373   77.0055 C.ar    1  UNL1        0.0078
      8 C           3.4538   58.0040   77.5429 C.ar    1  UNL1        0.0035
      9 C           3.8374   56.8978   76.8024 C.ar    1  UNL1        0.0398
     10 C           3.3609   56.7185   75.5152 C.ar    1  UNL1        0.1676
     11 C           2.4878   57.6497   74.9606 C.ar    1  UNL1        0.1718
     12 O           2.0142   57.4749   73.7005 O.3     1  UNL1       -0.5028
     13 O           3.7416   55.6299   74.7944 O.3     1  UNL1       -0.5029
     14 H           1.4266   58.1035   73.3295 H       1  UNL1        0.2923
     15 H           4.3293   55.0030   75.1678 H       1  UNL1        0.2923
     16 C          -2.3870   60.2967   74.9648 C.3     1  UNL1        0.1459
     17 O          -2.2330   60.2462   76.3846 O.3     1  UNL1       -0.3813
     18 H          -1.6855   59.4819   76.6235 H       1  UNL1        0.2105
     19 C          -3.0635   59.0132   74.4792 C.3     1  UNL1        0.1266
     20 N          -4.4116   58.9271   75.0462 N.3     1  UNL1       -0.1530
     21 S          -4.7262   57.8636   76.2758 S.O2    1  UNL1        0.0634
     22 O          -4.4014   58.5341   77.4859 O.2     1  UNL1       -0.1528
     23 O          -6.0172   57.3246   76.0263 O.2     1  UNL1       -0.1528
     24 C          -3.5848   56.5308   76.1167 C.ar    1  UNL1        0.1224
     25 C          -2.4862   56.4593   76.9532 C.ar    1  UNL1        0.0230
     26 C          -1.5929   55.4123   76.8341 C.ar    1  UNL1        0.0383
     27 C          -1.7926   54.4381   75.8668 C.ar    1  UNL1        0.1388
     28 C          -2.8927   54.5152   75.0249 C.ar    1  UNL1        0.0383
     29 C          -3.7862   55.5612   75.1517 C.ar    1  UNL1        0.0230
     30 O          -0.9125   53.4099   75.7443 O.3     1  UNL1       -0.4714
     31 C          -0.4513   52.8034   76.9532 C.3     1  UNL1        0.2525
     32 C          -5.4813   59.7819   74.5253 C.3     1  UNL1        0.0958
     33 C          -5.8762   60.8094   75.5879 C.3     1  UNL1        0.0178
     34 C          -5.5705   62.2177   75.0741 C.3     1  UNL1        0.0015
     35 C          -7.3724   60.6880   75.8837 C.3     1  UNL1        0.0015
     36 C          -1.1416   60.1895   72.8014 C.3     1  UNL1        0.0221
     37 C          -1.1373   61.5329   72.0692 C.3     1  UNL1        0.0018
     38 C           0.2078   61.7262   71.3661 C.3     1  UNL1        0.0001
     39 C           0.9793   60.4050   71.3692 C.3     1  UNL1        0.0000
     40 C           2.0597   60.4428   70.2865 C.3     1  UNL1        0.0000
     41 C           3.1515   62.2254   68.9181 C.3     1  UNL1        0.0000
     42 C           1.8111   61.6341   69.3593 C.3     1  UNL1        0.0000
@<TRIPOS>BOND
     1    41    42    1
     2    42    40    1
     3    40    39    1
     4    39    38    1
     5    38    37    1
     6    37    36    1
     7    36     1    1
     8     1    16    1
     9     1     2    1
    10    16    19    1
    11    16    17    1
    12    19    20    1
    13    20    32    1
    14    20    21    1
    15    32    33    1
    16    33    34    1
    17    33    35    1
    18    21    22    2
    19    21    23    2
    20    21    24    1
    21    24    29   ar
    22    24    25   ar
    23    25    26   ar
    24    26    27   ar
    25    27    28   ar
    26    27    30    1
    27    28    29   ar
    28    30    31    1
    29     2     3   am
    30     3     4    2
    31     3     6    1
    32     6    11   ar
    33     6     7   ar
    34     7     8   ar
    35     8     9   ar
    36     9    10   ar
    37    10    11   ar
    38    10    13    1
    39    11    12    1
    40    17    18    1
    41     2     5    1
    42    12    14    1
    43    13    15    1
#	Name:			ZINC14947927
#	Creating user name:	trannguyen
#	Creation time:		Thu Dec  1 16:45:04 2022


#	Modifying user name:	trannguyen
#	Modification time:	Thu Dec  1 16:45:04 2022

@<TRIPOS>MOLECULE
ZINC14947927
 42 44 0 0 0
SMALL
GASTEIGER

@<TRIPOS>ATOM
      1 C          -3.1614   60.4281   74.0831 C.3     1  UNL1        0.1532
      2 N          -4.4970   62.0173   75.4282 N.am    1  UNL1       -0.3005
      3 C          -4.4479   61.1451   74.4018 C.2     1  UNL1        0.2409
      4 O          -5.4393   60.9375   73.7347 O.2     1  UNL1       -0.2733
      5 H          -3.6923   62.1860   75.9698 H       1  UNL1        0.1497
      6 C          -5.7477   62.7144   75.7379 C.3     1  UNL1        0.0984
      7 C          -5.9645   64.9661   76.7028 C.2     1  UNL1        0.0789
      8 C          -5.5134   64.2029   75.7102 C.2     1  UNL1        0.0000
      9 C          -5.7359   66.4174   76.6757 C.2     1  UNL1        0.3411
     10 O          -4.7299   66.8647   76.1610 O.2     1  UNL1       -0.2449
     11 O          -6.6421   67.2527   77.2218 O.3     1  UNL1       -0.4454
     12 C          -7.1373   67.6098   79.5793 C.3     1  UNL1        0.0513
     13 C          -7.4110   66.7477   78.3453 C.3     1  UNL1        0.2089
     14 C          -6.2315   62.3001   77.1290 C.3     1  UNL1        0.0504
     15 C          -6.4619   60.8111   77.1579 C.ar    1  UNL1       -0.0202
     16 C          -7.4601   60.2510   76.3828 C.ar    1  UNL1       -0.0042
     17 C          -7.6677   58.8845   76.4049 C.ar    1  UNL1       -0.0003
     18 C          -6.8807   58.0787   77.2064 C.ar    1  UNL1       -0.0000
     19 C          -5.8861   58.6395   77.9856 C.ar    1  UNL1       -0.0003
     20 C          -5.6785   60.0060   77.9634 C.ar    1  UNL1       -0.0042
     21 N          -2.3229   61.2817   73.2379 N.am    1  UNL1       -0.2945
     22 C          -1.2628   60.7572   72.5918 C.2     1  UNL1        0.2463
     23 O          -1.0020   59.5745   72.7106 O.2     1  UNL1       -0.2701
     24 H          -2.5338   62.2386   73.1418 H       1  UNL1        0.1501
     25 C          -0.4248   61.6105   71.7468 C.2     1  UNL1        0.0577
     26 C           0.6717   61.1005   71.1512 C.2     1  UNL1        0.0047
     27 C           1.5142   61.9583   70.3019 C.ar    1  UNL1        0.0002
     28 C           2.1562   61.4235   69.1806 C.ar    1  UNL1        0.0017
     29 C           2.9394   62.2346   68.3868 C.ar    1  UNL1        0.0241
     30 C           3.0994   63.5723   68.7035 C.ar    1  UNL1        0.1429
     31 C           2.4719   64.1078   69.8148 C.ar    1  UNL1        0.0241
     32 C           1.6813   63.3107   70.6154 C.ar    1  UNL1        0.0017
     33 N           3.9464   64.4349   67.8493 N.pl3   1  UNL1        0.0577
     34 O           4.9247   64.9865   68.3209 O.2     1  UNL1       -0.1261
     35 O           3.6653   64.5929   66.6747 O.2     1  UNL1       -0.1261
     36 C          -2.4190   60.1106   75.3828 C.3     1  UNL1        0.0553
     37 C          -2.7733   58.7179   75.8363 C.ar    1  UNL1       -0.0200
     38 C          -3.6053   57.9298   75.0631 C.ar    1  UNL1       -0.0042
     39 C          -3.9263   56.6505   75.4769 C.ar    1  UNL1       -0.0003
     40 C          -3.4240   56.1630   76.6689 C.ar    1  UNL1       -0.0000
     41 C          -2.5963   56.9530   77.4446 C.ar    1  UNL1       -0.0003
     42 C          -2.2710   58.2304   77.0284 C.ar    1  UNL1       -0.0042
@<TRIPOS>BOND
     1    12    13    1
     2    13    11    1
     3    11     9    1
     4     9    10    2
     5     9     7    1
     6     7     8    2
     7     8     6    1
     8     6    14    1
     9     6     2    1
    10    14    15    1
    11    15    20   ar
    12    15    16   ar
    13    16    17   ar
    14    17    18   ar
    15    18    19   ar
    16    19    20   ar
    17     2     3   am
    18     3     4    2
    19     3     1    1
    20     1    36    1
    21     1    21    1
    22    36    37    1
    23    37    42   ar
    24    37    38   ar
    25    38    39   ar
    26    39    40   ar
    27    40    41   ar
    28    41    42   ar
    29    21    22   am
    30    22    23    2
    31    22    25    1
    32    25    26    2
    33    26    27    1
    34    27    32   ar
    35    27    28   ar
    36    28    29   ar
    37    29    30   ar
    38    30    31   ar
    39    30    33    1
    40    31    32   ar
    41    33    34    2
    42    33    35    2
    43     2     5    1
    44    21    24    1
#	Name:			ZINC14961728
#	Creating user name:	trannguyen
#	Creation time:		Thu Dec  1 16:45:04 2022


#	Modifying user name:	trannguyen
#	Modification time:	Thu Dec  1 16:45:04 2022

@<TRIPOS>MOLECULE
ZINC14961728
 39 42 0 0 0
SMALL
GASTEIGER

@<TRIPOS>ATOM
      1 C          -0.7340   60.2648   74.3467 C.3     1  UNL1        0.0984
      2 N           0.4669   59.4524   74.6096 N.4     1  UNL1        0.2311
      3 H           0.2492   58.4667   74.4639 H       1  UNL1        0.2004
      4 H           0.7696   59.5950   75.5732 H       1  UNL1        0.2004
      5 H           1.2134   59.7333   73.9738 H       1  UNL1        0.2004
      6 C          -1.8478   59.8285   75.3006 C.3     1  UNL1        0.2598
      7 O          -2.7441   58.9507   74.6165 O.3     1  UNL1       -0.4677
      8 C          -6.2210   59.7863   75.3119 C.ar    1  UNL1        0.0222
      9 C          -4.9244   59.8986   74.8045 C.ar    1  UNL1        0.0401
     10 C          -4.0187   58.8834   75.0838 C.ar    1  UNL1        0.1579
     11 C          -4.4330   57.7964   75.8415 C.ar    1  UNL1        0.1356
     12 N          -5.6668   57.7205   76.3001 N.ar    1  UNL1       -0.2391
     13 C          -6.5567   58.6626   76.0639 C.ar    1  UNL1        0.0991
     14 C          -6.4386   65.3913   74.1964 C.3     1  UNL1        0.0540
     15 C          -7.6973   64.5679   74.2903 C.ar    1  UNL1        0.0801
     16 C          -7.7704   63.1355   74.5626 C.ar    1  UNL1        0.0322
     17 C          -6.8146   62.1469   74.8144 C.ar    1  UNL1        0.0028
     18 C          -7.2272   60.8449   75.0486 C.ar    1  UNL1        0.0017
     19 C          -8.5903   60.5247   75.0372 C.ar    1  UNL1        0.0016
     20 C          -9.5287   61.4841   74.7971 C.ar    1  UNL1        0.0185
     21 C          -9.1387   62.8012   74.5596 C.ar    1  UNL1        0.0750
     22 N          -9.8258   63.9570   74.2943 N.ar    1  UNL1       -0.2761
     23 N          -8.9141   65.0058   74.1375 N.ar    1  UNL1       -0.1770
     24 H         -10.8047   64.0363   74.2253 H       1  UNL1        0.1889
     25 C          -1.1988   60.0789   72.9010 C.3     1  UNL1        0.0850
     26 C          -0.0316   60.2775   71.9686 C.ar    1  UNL1       -0.0165
     27 C           0.1561   61.4975   71.3462 C.ar    1  UNL1       -0.0002
     28 C           1.2290   61.6808   70.4941 C.ar    1  UNL1        0.0711
     29 C           2.1095   60.6416   70.2579 C.ar    1  UNL1        0.0077
     30 C           1.9187   59.4201   70.8761 C.ar    1  UNL1        0.0711
     31 C           0.8481   59.2379   71.7313 C.ar    1  UNL1       -0.0002
     32 C           2.8783   58.2870   70.6181 C.3     1  UNL1        0.4186
     33 F           3.5683   58.5229   69.4243 F       1  UNL1       -0.1659
     34 F           3.7910   58.1992   71.6748 F       1  UNL1       -0.1659
     35 F           2.1662   57.0871   70.5160 F       1  UNL1       -0.1659
     36 C           1.4366   63.0124   69.8196 C.3     1  UNL1        0.4186
     37 F           0.2046   63.5115   69.3836 F       1  UNL1       -0.1659
     38 F           2.0088   63.9105   70.7269 F       1  UNL1       -0.1659
     39 F           2.2894   62.8513   68.7223 F       1  UNL1       -0.1659
@<TRIPOS>UNITY_ATOM_ATTR
2 1
charge 1
@<TRIPOS>BOND
     1    14    15    1
     2    15    23   ar
     3    15    16   ar
     4    16    21   ar
     5    16    17   ar
     6    17    18   ar
     7    18    19   ar
     8    18     8    1
     9    19    20   ar
    10    20    21   ar
    11    21    22   ar
    12    22    23   ar
    13     8    13   ar
    14     8     9   ar
    15     9    10   ar
    16    10    11   ar
    17    10     7    1
    18    11    12   ar
    19    12    13   ar
    20     7     6    1
    21     6     1    1
    22     1    25    1
    23     1     2    1
    24    25    26    1
    25    26    31   ar
    26    26    27   ar
    27    27    28   ar
    28    28    29   ar
    29    28    36    1
    30    29    30   ar
    31    30    31   ar
    32    30    32    1
    33    32    33    1
    34    32    34    1
    35    32    35    1
    36    36    37    1
    37    36    38    1
    38    36    39    1
    39    22    24    1
    40     2     3    1
    41     2     4    1
    42     2     5    1
#	Name:			ZINC14965255
#	Creating user name:	trannguyen
#	Creation time:		Thu Dec  1 16:45:04 2022


#	Modifying user name:	trannguyen
#	Modification time:	Thu Dec  1 16:45:04 2022

@<TRIPOS>MOLECULE
ZINC14965255
 43 48 0 0 0
SMALL
GASTEIGER

@<TRIPOS>ATOM
      1 C           2.5291   60.9809   70.4576 C.ar    1  UNL1        0.3540
      2 N           2.3471   61.0394   69.1055 N.ar    1  UNL1       -0.2226
      3 C           2.9572   62.2019   68.6590 C.ar    1  UNL1        0.1835
      4 C           3.1033   62.7920   67.4126 C.ar    1  UNL1        0.0490
      5 C           3.7833   63.9856   67.2919 C.ar    1  UNL1        0.0414
      6 C           4.3255   64.6034   68.4150 C.ar    1  UNL1        0.1491
      7 C           4.1883   64.0280   69.6634 C.ar    1  UNL1        0.0833
      8 C           3.5010   62.8191   69.7974 C.ar    1  UNL1        0.1864
      9 N           3.2018   62.0295   70.8620 N.ar    1  UNL1       -0.2225
     10 H           1.8715   60.3793   68.5512 H       1  UNL1        0.3128
     11 H           3.4524   62.2170   71.7954 H       1  UNL1        0.3128
     12 N           2.0678   59.9703   71.2768 N.pl3   1  UNL1       -0.2458
     13 H           2.5765   59.1314   71.3577 H       1  UNL1        0.1591
     14 C          -0.4664   59.6893   73.9294 C.ar    1  UNL1        0.1439
     15 C           0.7149   59.5209   73.2239 C.ar    1  UNL1        0.0516
     16 C           0.8781   60.1381   71.9916 C.ar    1  UNL1        0.0570
     17 C          -0.1429   60.9228   71.4690 C.ar    1  UNL1        0.0149
     18 C          -1.3182   61.0880   72.1750 C.ar    1  UNL1        0.0082
     19 C          -1.4845   60.4699   73.4000 C.ar    1  UNL1        0.1054
     20 C          -2.7711   60.6478   74.1642 C.3     1  UNL1        0.4214
     21 F          -2.5097   61.3057   75.3708 F       1  UNL1       -0.1657
     22 F          -3.6647   61.4085   73.4024 F       1  UNL1       -0.1657
     23 F          -3.3335   59.3944   74.4287 F       1  UNL1       -0.1657
     24 O          -0.6295   59.0860   75.1361 O.3     1  UNL1       -0.4693
     25 C           0.3919   59.3004   76.1120 C.3     1  UNL1        0.2596
     26 C           2.6269   57.1521   75.5912 C.3     1  UNL1        0.1671
     27 C           0.9349   55.6672   76.5233 C.3     1  UNL1        0.1057
     28 C          -0.4380   55.8470   77.2061 C.3     1  UNL1        0.0669
     29 C          -0.5933   57.3689   77.4044 C.3     1  UNL1        0.0650
     30 C           0.6998   57.9828   76.8262 C.3     1  UNL1        0.1002
     31 N           1.1700   56.9688   75.8849 N.4     1  UNL1        0.2790
     32 H           0.6753   57.0392   74.9957 H       1  UNL1        0.2068
     33 O           4.9944   65.7796   68.2826 O.3     1  UNL1       -0.4533
     34 C           4.3058   66.8557   67.8293 C.ar    1  UNL1        0.1482
     35 C           3.2945   67.4250   68.5830 C.ar    1  UNL1        0.0581
     36 C           2.6071   68.5277   68.0919 C.ar    1  UNL1        0.1020
     37 N           2.8874   69.0538   66.9228 N.ar    1  UNL1       -0.2436
     38 C           3.8519   68.5548   66.1421 C.ar    1  UNL1        0.0842
     39 C           4.6025   67.4350   66.5744 C.ar    1  UNL1        0.0522
     40 C           5.6164   66.9197   65.7539 C.ar    1  UNL1        0.0045
     41 C           5.8724   67.5059   64.5511 C.ar    1  UNL1        0.0002
     42 C           5.1394   68.6112   64.1253 C.ar    1  UNL1        0.0015
     43 C           4.1414   69.1295   64.8923 C.ar    1  UNL1        0.0192
@<TRIPOS>UNITY_ATOM_ATTR
9 1
charge 1
31 1
charge 1
@<TRIPOS>BOND
     1    26    31    1
     2    27    28    1
     3    27    31    1
     4    28    29    1
     5    29    30    1
     6    30    25    1
     7    30    31    1
     8    25    24    1
     9    24    14    1
    10    14    19   ar
    11    14    15   ar
    12    15    16   ar
    13    16    17   ar
    14    16    12    1
    15    17    18   ar
    16    18    19   ar
    17    19    20    1
    18    20    21    1
    19    20    22    1
    20    20    23    1
    21    12     1    1
    22     1     9   ar
    23     1     2   ar
    24     2     3   ar
    25     3     8   ar
    26     3     4   ar
    27     4     5   ar
    28     5     6   ar
    29     6     7   ar
    30     6    33    1
    31     7     8   ar
    32     8     9   ar
    33    33    34    1
    34    34    39   ar
    35    34    35   ar
    36    35    36   ar
    37    36    37   ar
    38    37    38   ar
    39    38    43   ar
    40    38    39   ar
    41    39    40   ar
    42    40    41   ar
    43    41    42   ar
    44    42    43   ar
    45    12    13    1
    46     2    10    1
    47     9    11    1
    48    31    32    1
#	Name:			ZINC14970662
#	Creating user name:	trannguyen
#	Creation time:		Thu Dec  1 16:45:04 2022


#	Modifying user name:	trannguyen
#	Modification time:	Thu Dec  1 16:45:04 2022

@<TRIPOS>MOLECULE
ZINC14970662
 50 55 0 0 0
SMALL
GASTEIGER

@<TRIPOS>ATOM
      1 C          -0.0652   60.1706   73.6302 C.3     1  UNL1        0.1352
      2 N           1.3331   59.6508   75.7043 N.ar    1  UNL1       -0.2965
      3 C           2.3204   58.7663   75.9848 C.ar    1  UNL1        0.1436
      4 N           2.5316   58.0647   74.9046 N.ar    1  UNL1       -0.1336
      5 N           1.7417   58.4602   73.9701 N.ar    1  UNL1       -0.1319
      6 C           0.9908   59.4322   74.4116 C.ar    1  UNL1        0.1615
      7 C           0.7551   60.6439   76.6131 C.3     1  UNL1        0.1381
      8 C          -2.3276   58.8160   78.9473 C.ar    1  UNL1        0.1417
      9 C          -1.7652   58.1339   77.8773 C.ar    1  UNL1        0.0368
     10 C          -0.7735   58.7290   77.1216 C.ar    1  UNL1        0.0037
     11 C          -0.3311   60.0000   77.4357 C.ar    1  UNL1        0.0347
     12 C          -0.8902   60.6861   78.5044 C.ar    1  UNL1        0.1395
     13 C          -1.8895   60.0932   79.2609 C.ar    1  UNL1        0.0735
     14 C          -3.4248   56.8109   79.6013 C.3     1  UNL1        0.2525
     15 O          -3.3072   58.2325   79.6865 O.3     1  UNL1       -0.4713
     16 O          -0.4583   61.9380   78.8097 O.3     1  UNL1       -0.4716
     17 C          -0.3692   62.2735   80.1958 C.3     1  UNL1        0.2525
     18 C           3.0373   58.6162   77.3018 C.3     1  UNL1        0.0706
     19 C           2.7503   57.2305   77.8836 C.3     1  UNL1        0.0343
     20 C           1.8620   57.3678   79.0932 C.ar    1  UNL1       -0.0217
     21 C           1.9038   58.5212   79.8540 C.ar    1  UNL1       -0.0043
     22 C           1.0938   58.6444   80.9675 C.ar    1  UNL1       -0.0003
     23 C           0.2414   57.6146   81.3195 C.ar    1  UNL1       -0.0000
     24 C           0.1993   56.4615   80.5584 C.ar    1  UNL1       -0.0003
     25 C           1.0097   56.3380   79.4453 C.ar    1  UNL1       -0.0043
     26 N          -1.3927   59.7581   74.0925 N.am    1  UNL1       -0.2945
     27 C          -2.3269   60.6876   74.3750 C.2     1  UNL1        0.2783
     28 O          -2.0684   61.8657   74.2466 O.2     1  UNL1       -0.2687
     29 H          -1.6025   58.8018   74.1967 H       1  UNL1        0.1500
     30 C          -3.6925   60.2634   74.8504 C.3     1  UNL1        0.1854
     31 C          -3.8141   58.7403   74.7605 C.3     1  UNL1        0.1678
     32 C          -5.3187   58.7485   76.6564 C.3     1  UNL1        0.1643
     33 C          -5.1972   60.2715   76.7464 C.3     1  UNL1        0.1645
     34 N          -5.1389   58.3214   75.2558 N.4     1  UNL1        0.2637
     35 N          -3.8723   60.6905   76.2509 N.4     1  UNL1        0.2657
     36 H          -5.2130   57.3056   75.2014 H       1  UNL1        0.2040
     37 H          -5.8612   58.7551   74.6808 H       1  UNL1        0.2040
     38 H          -3.7983   61.7063   76.3054 H       1  UNL1        0.2043
     39 H          -3.1501   60.2568   76.8260 H       1  UNL1        0.2043
     40 C           0.0805   59.8454   72.1423 C.3     1  UNL1        0.0553
     41 C           0.3165   61.1181   71.3707 C.ar    1  UNL1       -0.0017
     42 C          -0.4090   62.2449   71.4479 C.ar    1  UNL1        0.0681
     43 N           0.1055   63.1900   70.6027 N.ar    1  UNL1       -0.3523
     44 C           1.1971   62.6785   69.9375 C.ar    1  UNL1        0.0563
     45 C           1.3772   61.3582   70.3892 C.ar    1  UNL1        0.0131
     46 C           2.4223   60.5847   69.8813 C.ar    1  UNL1        0.0012
     47 C           3.2659   61.1144   68.9458 C.ar    1  UNL1        0.0001
     48 C           3.0925   62.4162   68.4969 C.ar    1  UNL1        0.0015
     49 C           2.0679   63.1974   68.9851 C.ar    1  UNL1        0.0170
     50 H          -0.2516   64.1002   70.4874 H       1  UNL1        0.1660
@<TRIPOS>UNITY_ATOM_ATTR
34 1
charge 1
35 1
charge 1
@<TRIPOS>BOND
     1    14    15    1
     2    15     8    1
     3     8    13   ar
     4     8     9   ar
     5     9    10   ar
     6    10    11   ar
     7    11    12   ar
     8    11     7    1
     9    12    13   ar
    10    12    16    1
    11    16    17    1
    12     7     2    1
    13     2     6   ar
    14     2     3   ar
    15     3     4   ar
    16     3    18    1
    17     4     5   ar
    18     5     6   ar
    19     6     1    1
    20     1    40    1
    21     1    26    1
    22    40    41    1
    23    41    45   ar
    24    41    42   ar
    25    42    43   ar
    26    43    44   ar
    27    44    49   ar
    28    44    45   ar
    29    45    46   ar
    30    46    47   ar
    31    47    48   ar
    32    48    49   ar
    33    26    27   am
    34    27    28    2
    35    27    30    1
    36    30    31    1
    37    30    35    1
    38    31    34    1
    39    32    33    1
    40    32    34    1
    41    33    35    1
    42    18    19    1
    43    19    20    1
    44    20    25   ar
    45    20    21   ar
    46    21    22   ar
    47    22    23   ar
    48    23    24   ar
    49    24    25   ar
    50    43    50    1
    51    26    29    1
    52    34    36    1
    53    34    37    1
    54    35    38    1
    55    35    39    1
#	Name:			ZINC14973005
#	Creating user name:	trannguyen
#	Creation time:		Thu Dec  1 16:45:04 2022


#	Modifying user name:	trannguyen
#	Modification time:	Thu Dec  1 16:45:04 2022

@<TRIPOS>MOLECULE
ZINC14973005
 44 47 0 0 0
SMALL
GASTEIGER

@<TRIPOS>ATOM
      1 N          -0.1307   59.7656   74.0552 N.4     1  UNL1        0.2799
      2 H          -0.1812   58.7524   74.1615 H       1  UNL1        0.2071
      3 C          -1.3139   60.3470   74.7034 C.3     1  UNL1        0.1143
      4 C          -2.2241   59.2240   75.2048 C.3     1  UNL1        0.0997
      5 C          -1.2148   58.2701   79.2445 C.ar    1  UNL1       -0.0000
      6 C          -1.2758   57.2695   78.2925 C.ar    1  UNL1       -0.0003
      7 C          -1.6027   57.5782   76.9853 C.ar    1  UNL1       -0.0038
      8 C          -1.8683   58.8874   76.6299 C.ar    1  UNL1       -0.0127
      9 C          -1.8017   59.8888   77.5807 C.ar    1  UNL1       -0.0038
     10 C          -1.4798   59.5794   78.8889 C.ar    1  UNL1       -0.0003
     11 C          -3.6607   59.6746   75.1387 C.ar    1  UNL1       -0.0127
     12 C          -4.6535   58.9056   75.7163 C.ar    1  UNL1       -0.0038
     13 C          -5.9707   59.3214   75.6598 C.ar    1  UNL1       -0.0003
     14 C          -6.2961   60.5012   75.0170 C.ar    1  UNL1       -0.0000
     15 C          -5.3039   61.2673   74.4343 C.ar    1  UNL1       -0.0003
     16 C          -3.9861   60.8541   74.4954 C.ar    1  UNL1       -0.0038
     17 C          -0.1157   60.0684   72.6179 C.3     1  UNL1        0.1096
     18 C          -1.0716   61.2281   72.3310 C.3     1  UNL1        0.1081
     19 C          -0.4888   62.1071   71.2225 C.3     1  UNL1        0.2115
     20 O           0.8426   62.4923   71.5705 O.3     1  UNL1       -0.4752
     21 C           1.7083   62.7139   70.5465 C.ar    1  UNL1        0.1383
     22 C           2.0482   61.6787   69.6875 C.ar    1  UNL1        0.0369
     23 C           2.9241   61.9078   68.6444 C.ar    1  UNL1        0.0028
     24 C           3.4702   63.1651   68.4621 C.ar    1  UNL1       -0.0036
     25 C           3.1376   64.1969   69.3201 C.ar    1  UNL1       -0.0101
     26 C           2.2578   63.9741   70.3619 C.ar    1  UNL1        0.0331
     27 C           3.7354   65.5655   69.1192 C.3     1  UNL1        0.1112
     28 C           3.0289   66.2605   67.9839 C.2     1  UNL1        0.2238
     29 O           1.8185   66.2313   67.9143 O.2     1  UNL1       -0.2750
     30 N           3.7422   66.9145   67.0458 N.am    1  UNL1       -0.3285
     31 H           4.7249   66.9382   67.1022 H       1  UNL1        0.1450
     32 H           3.2806   67.3685   66.3041 H       1  UNL1        0.1450
     33 C           1.1044   60.2265   74.7033 C.3     1  UNL1        0.1336
     34 C           1.5473   59.2083   75.7222 C.ar    1  UNL1        0.0432
     35 C           1.6708   57.8792   75.3628 C.ar    1  UNL1        0.0022
     36 C           2.0765   56.9451   76.2973 C.ar    1  UNL1       -0.0001
     37 C           2.3590   57.3394   77.5920 C.ar    1  UNL1        0.0047
     38 C           2.2364   58.6679   77.9525 C.ar    1  UNL1        0.0819
     39 C           1.8358   59.6044   77.0158 C.ar    1  UNL1        0.0631
     40 CL          1.6883   61.2746   77.4658 Cl      1  UNL1       -0.0824
     41 C           2.5438   59.0975   79.3638 C.3     1  UNL1        0.4194
     42 F           2.5830   57.9732   80.1954 F       1  UNL1       -0.1658
     43 F           3.7842   59.7438   79.3948 F       1  UNL1       -0.1658
     44 F           1.5498   59.9743   79.8114 F       1  UNL1       -0.1658
@<TRIPOS>UNITY_ATOM_ATTR
1 1
charge 1
@<TRIPOS>BOND
     1     5    10   ar
     2     5     6   ar
     3     6     7   ar
     4     7     8   ar
     5     8     9   ar
     6     8     4    1
     7     9    10   ar
     8     4     3    1
     9     4    11    1
    10     3     1    1
    11     1    17    1
    12     1    33    1
    13    17    18    1
    14    18    19    1
    15    19    20    1
    16    20    21    1
    17    21    26   ar
    18    21    22   ar
    19    22    23   ar
    20    23    24   ar
    21    24    25   ar
    22    25    26   ar
    23    25    27    1
    24    27    28    1
    25    28    29    2
    26    28    30   am
    27    33    34    1
    28    34    39   ar
    29    34    35   ar
    30    35    36   ar
    31    36    37   ar
    32    37    38   ar
    33    38    39   ar
    34    38    41    1
    35    39    40    1
    36    41    42    1
    37    41    43    1
    38    41    44    1
    39    11    16   ar
    40    11    12   ar
    41    12    13   ar
    42    13    14   ar
    43    14    15   ar
    44    15    16   ar
    45     1     2    1
    46    30    31    1
    47    30    32    1
#	Name:			ZINC15165337
#	Creating user name:	trannguyen
#	Creation time:		Thu Dec  1 16:45:04 2022


#	Modifying user name:	trannguyen
#	Modification time:	Thu Dec  1 16:45:04 2022

@<TRIPOS>MOLECULE
ZINC15165337
 13 15 0 0 0
SMALL
GASTEIGER

@<TRIPOS>ATOM
      1 C           3.0685   63.2216   69.6932 C.3     1  UNL1        0.1940
      2 C           3.5071   64.6561   69.3447 C.3     1  UNL1        0.0856
      3 C           5.0418   64.7515   69.4389 C.3     1  UNL1        0.0637
      4 C           5.4763   65.4974   68.1499 C.3     1  UNL1        0.0669
      5 C           4.1638   65.8188   67.4061 C.3     1  UNL1        0.1055
      6 C           3.4928   63.4955   67.2961 C.3     1  UNL1        0.1378
      7 C           3.0509   62.4616   68.3523 C.3     1  UNL1        0.2026
      8 O           3.9560   62.1387   69.4109 O.3     1  UNL1       -0.3416
      9 N           3.2367   64.8033   67.9291 N.4     1  UNL1        0.2755
     10 H           2.2764   65.0920   67.7425 H       1  UNL1        0.2066
     11 C           1.9698   63.0477   70.7437 C.3     1  UNL1        0.1775
     12 C           1.1489   60.8481   71.2266 C.3     1  UNL1        0.1742
     13 O           2.1729   61.8202   71.4466 O.3     1  UNL1       -0.3483
@<TRIPOS>UNITY_ATOM_ATTR
9 1
charge 1
@<TRIPOS>BOND
     1    12    13    1
     2    13    11    1
     3    11     1    1
     4     1     7    1
     5     1     8    1
     6     1     2    1
     7     2     3    1
     8     2     9    1
     9     3     4    1
    10     4     5    1
    11     5     9    1
    12     6     7    1
    13     6     9    1
    14     7     8    1
    15     9    10    1
#	Name:			ZINC15185210
#	Creating user name:	trannguyen
#	Creation time:		Thu Dec  1 16:45:04 2022


#	Modifying user name:	trannguyen
#	Modification time:	Thu Dec  1 16:45:04 2022

@<TRIPOS>MOLECULE
ZINC15185210
 40 45 0 0 0
SMALL
GASTEIGER

@<TRIPOS>ATOM
      1 N          -0.1916   61.8730   71.6704 N.ar    1  UNL1       -0.2450
      2 C          -1.3487   61.3582   72.1400 C.ar    1  UNL1        0.0985
      3 C          -1.0550   60.5539   73.1840 C.ar    1  UNL1        0.0736
      4 C           0.3435   60.5741   73.3651 C.ar    1  UNL1        0.1383
      5 N           0.8589   61.3662   72.4460 N.ar    1  UNL1       -0.1660
      6 C           1.0984   59.8332   74.3983 C.ar    1  UNL1        0.1645
      7 C           1.6259   60.3804   75.5189 C.ar    1  UNL1        0.0421
      8 C           2.2764   59.2831   76.2392 C.ar    1  UNL1        0.0376
      9 C           2.9859   59.1907   77.4374 C.ar    1  UNL1        0.0031
     10 C           3.4782   57.9810   77.8418 C.ar    1  UNL1        0.0002
     11 C           3.2773   56.8467   77.0684 C.ar    1  UNL1        0.0031
     12 C           2.5787   56.9182   75.8817 C.ar    1  UNL1        0.0375
     13 C           2.0693   58.1367   75.4516 C.ar    1  UNL1        0.1454
     14 O           1.3590   58.5115   74.3681 O.2     1  UNL1       -0.4519
     15 C          -0.0578   62.7966   70.5412 C.3     1  UNL1        0.1538
     16 C           3.9221   62.6041   69.0015 C.ar    1  UNL1       -0.0000
     17 C           3.5252   63.6913   69.7574 C.ar    1  UNL1       -0.0003
     18 C           2.2368   63.7544   70.2542 C.ar    1  UNL1       -0.0023
     19 C           1.3468   62.7279   69.9996 C.ar    1  UNL1        0.0021
     20 C           1.7454   61.6379   69.2485 C.ar    1  UNL1       -0.0023
     21 C           3.0336   61.5750   68.7513 C.ar    1  UNL1       -0.0003
     22 C          -2.0456   59.7735   74.0092 C.3     1  UNL1        0.1333
     23 N          -2.2754   60.4673   75.2835 N.4     1  UNL1        0.2613
     24 H          -2.8122   61.3169   75.1087 H       1  UNL1        0.2042
     25 H          -1.3713   60.6946   75.6974 H       1  UNL1        0.2042
     26 C          -3.0180   59.6143   76.2209 C.3     1  UNL1        0.1300
     27 C          -2.0482   58.7800   77.0174 C.ar    1  UNL1        0.0341
     28 C          -1.1407   59.3924   77.8618 C.ar    1  UNL1        0.0013
     29 C          -0.2544   58.6269   78.5960 C.ar    1  UNL1       -0.0001
     30 C          -0.2683   57.2495   78.4779 C.ar    1  UNL1       -0.0001
     31 C          -1.1721   56.6376   77.6299 C.ar    1  UNL1        0.0013
     32 C          -2.0620   57.4030   76.8995 C.ar    1  UNL1        0.0342
     33 C          -3.0471   56.7359   75.9744 C.3     1  UNL1        0.1329
     34 N          -3.0995   55.2978   76.2696 N.4     1  UNL1        0.2831
     35 C          -2.9851   54.5027   75.0383 C.3     1  UNL1        0.1384
     36 C          -2.9842   53.0142   75.3967 C.3     1  UNL1        0.2029
     37 O          -4.1712   52.7054   76.1323 O.3     1  UNL1       -0.3412
     38 C          -4.3143   53.4613   77.3379 C.3     1  UNL1        0.2029
     39 C          -4.3287   54.9543   76.9992 C.3     1  UNL1        0.1384
     40 H          -2.3038   55.0725   76.8667 H       1  UNL1        0.2072
@<TRIPOS>UNITY_ATOM_ATTR
23 1
charge 1
34 1
charge 1
@<TRIPOS>BOND
     1    16    21   ar
     2    16    17   ar
     3    17    18   ar
     4    18    19   ar
     5    19    20   ar
     6    19    15    1
     7    20    21   ar
     8    15     1    1
     9     1     5   ar
    10     1     2   ar
    11     2     3   ar
    12     3     4   ar
    13     3    22    1
    14     4     5   ar
    15     4     6    1
    16     6    14   ar
    17     6     7   ar
    18     7     8   ar
    19     8    13   ar
    20     8     9   ar
    21     9    10   ar
    22    10    11   ar
    23    11    12   ar
    24    12    13   ar
    25    13    14   ar
    26    22    23    1
    27    23    26    1
    28    26    27    1
    29    27    32   ar
    30    27    28   ar
    31    28    29   ar
    32    29    30   ar
    33    30    31   ar
    34    31    32   ar
    35    32    33    1
    36    33    34    1
    37    34    39    1
    38    34    35    1
    39    35    36    1
    40    36    37    1
    41    37    38    1
    42    38    39    1
    43    23    24    1
    44    23    25    1
    45    34    40    1
#	Name:			ZINC15220939
#	Creating user name:	trannguyen
#	Creation time:		Thu Dec  1 16:45:04 2022


#	Modifying user name:	trannguyen
#	Modification time:	Thu Dec  1 16:45:04 2022

@<TRIPOS>MOLECULE
ZINC15220939
 8 8 0 0 0
SMALL
GASTEIGER

@<TRIPOS>ATOM
      1 C           5.7804   69.0652   62.0658 C.3     1  UNL1        0.1384
      2 N           4.7002   68.9078   63.0431 N.ar    1  UNL1       -0.2420
      3 C           3.4028   68.6322   62.7545 C.ar    1  UNL1        0.2555
      4 N           2.7389   68.5719   63.8767 N.ar    1  UNL1        0.0334
      5 N           3.6420   68.8174   64.9203 N.ar    1  UNL1       -0.0097
      6 C           4.8254   69.0178   64.3831 C.ar    1  UNL1        0.4144
      7 C           3.3445   68.8441   66.2618 C.2     1  UNL1        0.3249
      8 C           3.7612   67.8662   67.0523 C.2     1  UNL1        0.0851
@<TRIPOS>UNITY_ATOM_ATTR
5 1
charge 1
@<TRIPOS>BOND
     1     1     2    1
     2     2     6   ar
     3     2     3   ar
     4     3     4   ar
     5     4     5   ar
     6     5     6   ar
     7     5     7    1
     8     7     8    2
#	Name:			ZINC15672718
#	Creating user name:	trannguyen
#	Creation time:		Thu Dec  1 16:45:04 2022


#	Modifying user name:	trannguyen
#	Modification time:	Thu Dec  1 16:45:04 2022

@<TRIPOS>MOLECULE
ZINC15672718
 36 40 0 0 0
SMALL
GASTEIGER

@<TRIPOS>ATOM
      1 C           1.2944   59.9465   76.6770 C.3     1  UNL1        0.0958
      2 C           0.4920   59.2623   77.7875 C.3     1  UNL1        0.1111
      3 C           2.5260   58.5700   78.9066 C.3     1  UNL1        0.1053
      4 C           3.3860   59.2352   77.8284 C.3     1  UNL1        0.0617
      5 C           2.6242   59.2034   76.4975 C.3     1  UNL1        0.0231
      6 C           2.3236   57.7421   76.1405 C.3     1  UNL1        0.0619
      7 C           1.4932   57.1188   77.2660 C.3     1  UNL1        0.1113
      8 N           1.2429   58.1110   78.3331 N.4     1  UNL1        0.2763
      9 H           0.6886   57.6733   79.0690 H       1  UNL1        0.2067
     10 C          -1.5497   59.7576   74.2016 C.ar    1  UNL1        0.0614
     11 C          -0.8696   59.7998   75.4100 C.ar    1  UNL1        0.0297
     12 C           0.5133   59.9023   75.3891 C.ar    1  UNL1        0.0672
     13 N           1.1375   59.9660   74.2255 N.ar    1  UNL1       -0.2307
     14 C           0.4573   59.9277   73.0886 C.ar    1  UNL1        0.1616
     15 N          -0.8643   59.8255   73.0735 N.ar    1  UNL1       -0.2309
     16 C           1.1929   60.0015   71.8017 C.ar    1  UNL1        0.0389
     17 C           1.2723   61.2002   71.0881 C.ar    1  UNL1        0.0237
     18 C           1.9710   61.2259   69.8977 C.ar    1  UNL1        0.0990
     19 N           2.5488   60.1374   69.4283 N.ar    1  UNL1       -0.2423
     20 C           2.4934   58.9853   70.0678 C.ar    1  UNL1        0.0990
     21 C           1.8198   58.8726   71.2677 C.ar    1  UNL1        0.0237
     22 C          -3.0520   59.6422   74.1755 C.3     1  UNL1        0.0404
     23 C          -3.8639   57.5183   75.2109 C.3     1  UNL1        0.0004
     24 C          -3.5359   58.9897   75.4720 C.3     1  UNL1        0.0059
     25 C          -3.6685   61.0365   74.0453 C.3     1  UNL1        0.0059
     26 C          -5.1497   60.9765   74.4240 C.3     1  UNL1        0.0004
     27 C           0.1516   56.6416   76.7063 C.3     1  UNL1        0.1576
     28 N           0.3404   55.3365   76.0452 N.4     1  UNL1        0.2545
     29 H           1.2295   54.9345   76.3420 H       1  UNL1        0.2035
     30 H           0.3387   55.4735   75.0344 H       1  UNL1        0.2035
     31 C          -0.7544   54.4163   76.4064 C.3     1  UNL1        0.0526
     32 C          -1.3789   53.8403   75.1339 C.3     1  UNL1        0.0549
     33 C          -2.5201   52.8928   75.5095 C.3     1  UNL1        0.0059
     34 C          -3.5831   53.6618   76.2965 C.3     1  UNL1        0.0004
     35 C          -2.9587   54.2378   77.5690 C.3     1  UNL1        0.0059
     36 C          -1.8176   55.1852   77.1933 C.3     1  UNL1        0.0549
@<TRIPOS>UNITY_ATOM_ATTR
8 1
charge 1
28 1
charge 1
@<TRIPOS>BOND
     1    23    24    1
     2    24    22    1
     3    22    25    1
     4    22    10    1
     5    25    26    1
     6    10    15   ar
     7    10    11   ar
     8    11    12   ar
     9    12    13   ar
    10    12     1    1
    11    13    14   ar
    12    14    15   ar
    13    14    16    1
    14    16    21   ar
    15    16    17   ar
    16    17    18   ar
    17    18    19   ar
    18    19    20   ar
    19    20    21   ar
    20     1     5    1
    21     1     2    1
    22     2     8    1
    23     3     4    1
    24     3     8    1
    25     4     5    1
    26     5     6    1
    27     6     7    1
    28     7    27    1
    29     7     8    1
    30    27    28    1
    31    31    36    1
    32    31    32    1
    33    31    28    1
    34    32    33    1
    35    33    34    1
    36    34    35    1
    37    35    36    1
    38     8     9    1
    39    28    29    1
    40    28    30    1
#	Name:			ZINC15781182
#	Creating user name:	trannguyen
#	Creation time:		Thu Dec  1 16:45:04 2022


#	Modifying user name:	trannguyen
#	Modification time:	Thu Dec  1 16:45:04 2022

@<TRIPOS>MOLECULE
ZINC15781182
 21 23 0 0 0
SMALL
GASTEIGER

@<TRIPOS>ATOM
      1 C           3.1661   68.1890   67.8352 C.3     1  UNL1        0.1320
      2 C           3.2023   66.7169   68.1551 C.ar    1  UNL1        0.2932
      3 N           2.3504   66.2344   69.0369 N.ar    1  UNL1       -0.1703
      4 C           2.3543   64.9340   69.3364 C.ar    1  UNL1        0.1694
      5 C           3.2742   64.0949   68.6931 C.ar    1  UNL1        0.0846
      6 C           4.1467   64.6475   67.7819 C.ar    1  UNL1        0.2897
      7 N           4.0850   65.9523   67.5438 N.ar    1  UNL1       -0.1459
      8 C           5.0108   66.5520   66.5797 C.3     1  UNL1        0.4093
      9 C           3.3019   62.6120   68.9766 C.3     1  UNL1        0.0497
     10 C           1.8715   62.1759   69.2884 C.3     1  UNL1        0.1174
     11 C           1.3156   63.1429   70.3229 C.2     1  UNL1        0.0802
     12 N           1.4876   64.4379   70.2667 N.2     1  UNL1       -0.2292
     13 C           0.6565   62.3366   71.2533 C.2     1  UNL1        0.0322
     14 C           0.9880   61.0429   71.0518 C.2     1  UNL1        0.0631
     15 C           4.2048   62.3300   70.1793 C.3     1  UNL1        0.0067
     16 C           3.8190   61.8583   67.7497 C.3     1  UNL1        0.0067
     17 N           2.0522   61.0211   70.1870 N.pl3   1  UNL1       -0.2991
     18 C           2.4742   59.6450   69.5544 C.3     1  UNL1        0.1078
     19 P           3.1333   58.2686   70.5515 P.3     1  UNL1       -0.0819
     20 C           1.7207   57.5223   71.4296 C.3     1  UNL1        0.0238
     21 H           4.0591   58.7417   71.4590 H       1  UNL1        0.0604
@<TRIPOS>UNITY_ATOM_ATTR
7 1
charge 1
@<TRIPOS>BOND
     1     1     2    1
     2     2     7   ar
     3     2     3   ar
     4     3     4   ar
     5     4    12    1
     6     4     5   ar
     7     5     6   ar
     8     5     9    1
     9     6     7   ar
    10     7     8    1
    11     9    10    1
    12     9    15    1
    13     9    16    1
    14    10    11    1
    15    10    17    1
    16    11    12    2
    17    11    13    1
    18    13    14    2
    19    14    17    1
    20    18    19    1
    21    18    17    1
    22    19    20    1
    23    19    21    1
#	Name:			ZINC15895310
#	Creating user name:	trannguyen
#	Creation time:		Thu Dec  1 16:45:04 2022


#	Modifying user name:	trannguyen
#	Modification time:	Thu Dec  1 16:45:04 2022

@<TRIPOS>MOLECULE
ZINC15895310
 33 35 0 0 0
SMALL
GASTEIGER

@<TRIPOS>ATOM
      1 N          -4.3434   60.6124   74.6714 N.am    1  UNL1       -0.2306
      2 C          -4.8927   61.3671   75.6436 C.2     1  UNL1        0.2825
      3 O          -4.6455   62.5530   75.7034 O.2     1  UNL1       -0.2695
      4 H          -4.5440   59.6498   74.6229 H       1  UNL1        0.1729
      5 C          -2.3320   60.5875   73.3982 C.2     1  UNL1        0.2615
      6 O          -2.0330   59.5279   73.9168 O.2     1  UNL1       -0.2686
      7 N          -3.4871   61.1978   73.7297 N.am    1  UNL1       -0.2302
      8 H          -3.7290   62.0549   73.3102 H       1  UNL1        0.1731
      9 C          -0.2851   60.5851   72.0771 C.2     1  UNL1        0.0047
     10 C          -1.4343   61.2022   72.4187 C.2     1  UNL1        0.0592
     11 C           1.7056   60.4834   70.5882 C.ar    1  UNL1        0.0005
     12 C           2.5440   61.0670   69.6624 C.ar    1  UNL1        0.0067
     13 C           2.3167   62.3661   69.2392 C.ar    1  UNL1        0.0346
     14 C           1.2441   63.0866   69.7383 C.ar    1  UNL1        0.0067
     15 C           0.3945   62.5144   70.6607 C.ar    1  UNL1        0.0005
     16 C           0.6175   61.2029   71.0924 C.ar    1  UNL1        0.0002
     17 BR          3.4767   63.1602   67.9745 Br      1  UNL1       -0.0490
     18 C          -5.8139   60.7374   76.6564 C.3     1  UNL1        0.2909
     19 O          -5.0430   60.0040   77.6104 O.3     1  UNL1       -0.4656
     20 C          -4.7393   58.7170   77.2994 C.ar    1  UNL1        0.1393
     21 C          -3.4117   58.3284   77.1779 C.ar    1  UNL1        0.0369
     22 C          -3.1000   57.0219   76.8671 C.ar    1  UNL1        0.0031
     23 C          -4.1200   56.0927   76.6639 C.ar    1  UNL1        0.0002
     24 C          -5.4525   56.4874   76.7815 C.ar    1  UNL1        0.0031
     25 C          -5.7572   57.7942   77.0981 C.ar    1  UNL1        0.0369
     26 C          -3.7886   54.6889   76.3231 C.ar    1  UNL1        0.0000
     27 C          -2.9432   54.4135   75.2476 C.ar    1  UNL1        0.0007
     28 C          -2.6302   53.1106   74.9336 C.ar    1  UNL1        0.0103
     29 C          -3.1691   52.0624   75.6852 C.ar    1  UNL1        0.0684
     30 C          -4.0203   52.3394   76.7588 C.ar    1  UNL1        0.0103
     31 C          -4.3268   53.6435   77.0745 C.ar    1  UNL1        0.0007
     32 C          -2.8498   50.7060   75.3554 C.1     1  UNL1        0.1004
     33 N          -2.5965   49.6300   75.0937 N.1     1  UNL1       -0.1908
@<TRIPOS>BOND
     1    11    16   ar
     2    11    12   ar
     3    12    13   ar
     4    13    14   ar
     5    13    17    1
     6    14    15   ar
     7    15    16   ar
     8    16     9    1
     9     9    10    2
    10    10     5    1
    11     5     6    2
    12     5     7   am
    13     7     1    1
    14     1     2   am
    15     2     3    2
    16     2    18    1
    17    18    19    1
    18    19    20    1
    19    20    25   ar
    20    20    21   ar
    21    21    22   ar
    22    22    23   ar
    23    23    24   ar
    24    23    26    1
    25    24    25   ar
    26    26    31   ar
    27    26    27   ar
    28    27    28   ar
    29    28    29   ar
    30    29    30   ar
    31    29    32    1
    32    30    31   ar
    33    32    33    3
    34     7     8    1
    35     1     4    1
#	Name:			ZINC15905980
#	Creating user name:	trannguyen
#	Creation time:		Thu Dec  1 16:45:04 2022


#	Modifying user name:	trannguyen
#	Modification time:	Thu Dec  1 16:45:04 2022

@<TRIPOS>MOLECULE
ZINC15905980
 23 25 0 0 0
SMALL
GASTEIGER

@<TRIPOS>ATOM
      1 C          -2.6303   59.5240   76.0923 C.ar    1  UNL1        0.0002
      2 C          -3.2677   59.8937   74.9199 C.ar    1  UNL1        0.0002
      3 C          -2.5344   60.2966   73.8205 C.ar    1  UNL1        0.0075
      4 C          -1.1457   60.3360   73.8929 C.ar    1  UNL1        0.0856
      5 C          -0.4979   59.9539   75.0836 C.ar    1  UNL1        0.0851
      6 C          -1.2512   59.5518   76.1795 C.ar    1  UNL1        0.0075
      7 C           0.9524   60.0958   74.8421 C.2     1  UNL1        0.2773
      8 N           1.8970   59.8440   75.7027 N.2     1  UNL1       -0.2879
      9 N           1.1352   60.5410   73.5486 N.pl3   1  UNL1       -0.1692
     10 C          -0.0887   60.6989   72.9316 C.2     1  UNL1        0.2843
     11 N          -0.2796   61.1079   71.7005 N.2     1  UNL1       -0.2403
     12 H           1.6681   59.5286   76.6069 H       1  UNL1        0.3009
     13 H           2.8400   59.9691   75.4491 H       1  UNL1        0.3009
     14 H           2.0078   60.7191   73.1291 H       1  UNL1        0.3019
     15 H          -1.1941   61.1903   71.3454 H       1  UNL1        0.3111
     16 C           0.7907   61.4196   70.9105 C.ar    1  UNL1        0.1449
     17 C           1.1390   62.7559   70.6957 C.ar    1  UNL1        0.0535
     18 C           2.2182   63.0638   69.8921 C.ar    1  UNL1        0.0621
     19 C           2.9622   62.0520   69.3085 C.ar    1  UNL1        0.0230
     20 C           2.6225   60.7258   69.5171 C.ar    1  UNL1        0.0621
     21 C           1.5422   60.4037   70.3138 C.ar    1  UNL1        0.0535
     22 CL          3.5571   59.4653   68.7745 Cl      1  UNL1       -0.0821
     23 CL          2.6483   64.7232   69.6183 Cl      1  UNL1       -0.0821
@<TRIPOS>UNITY_ATOM_ATTR
8 1
charge 1
11 1
charge 1
@<TRIPOS>BOND
     1     1     6   ar
     2     1     2   ar
     3     2     3   ar
     4     3     4   ar
     5     4    10    1
     6     4     5   ar
     7     5     6   ar
     8     5     7    1
     9     7     8    2
    10     7     9    1
    11     9    10    1
    12    10    11    2
    13    11    16    1
    14    16    21   ar
    15    16    17   ar
    16    17    18   ar
    17    18    19   ar
    18    18    23    1
    19    19    20   ar
    20    20    21   ar
    21    20    22    1
    22     8    12    1
    23     8    13    1
    24     9    14    1
    25    11    15    1
#	Name:			ZINC16037016
#	Creating user name:	trannguyen
#	Creation time:		Thu Dec  1 16:45:04 2022


#	Modifying user name:	trannguyen
#	Modification time:	Thu Dec  1 16:45:04 2022

@<TRIPOS>MOLECULE
ZINC16037016
 40 42 0 0 0
SMALL
GASTEIGER

@<TRIPOS>ATOM
      1 C           0.4626   60.1116   72.1822 C.ar    1  UNL1        0.0128
      2 C          -0.0661   59.5532   73.3113 C.ar    1  UNL1        0.0050
      3 C          -1.2454   60.0673   73.8511 C.ar    1  UNL1        0.0735
      4 C          -1.8920   61.1557   73.2398 C.ar    1  UNL1        0.1512
      5 C          -1.3413   61.7112   72.0923 C.ar    1  UNL1        0.0748
      6 C          -0.1700   61.1902   71.5689 C.ar    1  UNL1        0.1477
      7 O          -3.0342   61.6482   73.7589 O.2     1  UNL1       -0.4518
      8 C          -3.6094   61.1610   74.8602 C.ar    1  UNL1        0.1762
      9 C          -3.0915   60.1094   75.5521 C.ar    1  UNL1        0.0986
     10 C          -1.8446   59.4896   75.0680 C.ar    1  UNL1        0.2033
     11 O          -1.3342   58.5454   75.6455 O.2     1  UNL1       -0.2863
     12 C          -3.7658   59.5991   76.7635 C.ar    1  UNL1        0.1163
     13 N          -4.6625   58.6292   76.8823 N.ar    1  UNL1       -0.2424
     14 C          -5.1619   58.3035   78.0530 C.ar    1  UNL1        0.0664
     15 C          -4.7601   58.9653   79.1687 C.ar    1  UNL1        0.0516
     16 S          -3.5870   60.1175   78.4652 S.2     1  UNL1       -0.0661
     17 C          -6.1799   57.1971   78.1575 C.3     1  UNL1        0.0527
     18 C          -4.8842   61.7955   75.3532 C.3     1  UNL1        0.1085
     19 N          -4.7706   63.2573   75.2626 N.4     1  UNL1        0.2336
     20 H          -4.6103   63.5264   74.2920 H       1  UNL1        0.2007
     21 H          -3.9892   63.5738   75.8367 H       1  UNL1        0.2007
     22 H          -5.6335   63.6867   75.5964 H       1  UNL1        0.2007
     23 C          -6.0564   61.3208   74.4921 C.3     1  UNL1        0.0745
     24 C          -7.1767   60.8030   75.3962 C.3     1  UNL1        0.0640
     25 S          -8.7623   61.4955   74.8513 S.3     1  UNL1       -0.1391
     26 C          -8.3194   63.1110   74.1549 C.3     1  UNL1        0.0692
     27 C           1.5838   58.0509   71.3784 C.3     1  UNL1        0.0051
     28 C           1.7361   59.5576   71.5972 C.3     1  UNL1        0.0295
     29 O           0.3664   61.7356   70.4470 O.3     1  UNL1       -0.4205
     30 C           1.3733   62.6083   70.6147 C.2     1  UNL1        0.3715
     31 O           1.3400   63.4013   71.5258 O.2     1  UNL1       -0.2433
     32 C           2.5447   62.5986   69.6667 C.3     1  UNL1        0.1507
     33 N           2.1033   62.1254   68.3479 N.4     1  UNL1        0.2363
     34 H           1.3798   62.7477   67.9880 H       1  UNL1        0.2008
     35 H           1.7276   61.1810   68.4339 H       1  UNL1        0.2008
     36 H           2.8961   62.1188   67.7063 H       1  UNL1        0.2008
     37 C           3.1082   64.0152   69.5379 C.3     1  UNL1        0.0782
     38 C           3.7832   64.1735   68.1740 C.3     1  UNL1        0.0641
     39 S           4.7999   65.6758   68.1731 S.3     1  UNL1       -0.1391
     40 C           3.6754   66.9671   68.7716 C.3     1  UNL1        0.0692
@<TRIPOS>UNITY_ATOM_ATTR
19 1
charge 1
33 1
charge 1
@<TRIPOS>BOND
     1    27    28    1
     2    28     1    1
     3     1     6   ar
     4     1     2   ar
     5     2     3   ar
     6     3    10   ar
     7     3     4   ar
     8     4     5   ar
     9     4     7   ar
    10     5     6   ar
    11     6    29    1
    12    29    30    1
    13    30    31    2
    14    30    32    1
    15    32    37    1
    16    32    33    1
    17    37    38    1
    18    38    39    1
    19    39    40    1
    20     7     8   ar
    21     8     9   ar
    22     8    18    1
    23     9    10   ar
    24     9    12    1
    25    10    11    2
    26    12    16   ar
    27    12    13   ar
    28    13    14   ar
    29    14    15   ar
    30    14    17    1
    31    15    16   ar
    32    18    23    1
    33    18    19    1
    34    23    24    1
    35    24    25    1
    36    25    26    1
    37    33    34    1
    38    33    35    1
    39    33    36    1
    40    19    20    1
    41    19    21    1
    42    19    22    1
#	Name:			ZINC16052777
#	Creating user name:	trannguyen
#	Creation time:		Thu Dec  1 16:45:04 2022


#	Modifying user name:	trannguyen
#	Modification time:	Thu Dec  1 16:45:04 2022

@<TRIPOS>MOLECULE
ZINC16052777
 39 43 0 0 0
SMALL
GASTEIGER

@<TRIPOS>ATOM
      1 C           4.2548   64.1112   68.9641 C.3     1  UNL1        0.0984
      2 N           5.0465   63.1018   69.6891 N.4     1  UNL1        0.2311
      3 H           4.8333   63.1538   70.6852 H       1  UNL1        0.2004
      4 H           6.0402   63.2807   69.5442 H       1  UNL1        0.2004
      5 H           4.8138   62.1722   69.3397 H       1  UNL1        0.2004
      6 C           2.7585   63.8545   69.1545 C.3     1  UNL1        0.2598
      7 O           2.4030   62.6214   68.5259 O.3     1  UNL1       -0.4677
      8 C           1.0513   60.5349   71.1883 C.ar    1  UNL1        0.0222
      9 C           1.2544   61.6549   70.3790 C.ar    1  UNL1        0.0401
     10 C           2.1710   61.5581   69.3400 C.ar    1  UNL1        0.1579
     11 C           2.8476   60.3619   69.1437 C.ar    1  UNL1        0.1356
     12 N           2.6306   59.3238   69.9271 N.ar    1  UNL1       -0.2391
     13 C           1.7752   59.3733   70.9277 C.ar    1  UNL1        0.0991
     14 C           0.7210   59.0517   76.7018 C.3     1  UNL1        0.0540
     15 C          -0.4415   59.7079   76.0024 C.ar    1  UNL1        0.0801
     16 C          -0.4759   60.1360   74.6071 C.ar    1  UNL1        0.0322
     17 C           0.4415   60.0814   73.5537 C.ar    1  UNL1        0.0028
     18 C           0.0837   60.5832   72.3125 C.ar    1  UNL1        0.0017
     19 C          -1.1877   61.1359   72.1156 C.ar    1  UNL1        0.0016
     20 C          -2.0896   61.1883   73.1365 C.ar    1  UNL1        0.0185
     21 C          -1.7536   60.6893   74.3940 C.ar    1  UNL1        0.0750
     22 N          -2.4244   60.6012   75.5860 N.ar    1  UNL1       -0.2761
     23 N          -1.5930   59.9996   76.5359 N.ar    1  UNL1       -0.1770
     24 H          -3.3446   60.9118   75.7476 H       1  UNL1        0.1889
     25 C           4.6066   65.4994   69.5027 C.3     1  UNL1        0.0851
     26 C           4.1860   66.5470   68.5042 C.ar    1  UNL1       -0.0134
     27 C           3.2766   67.5230   68.8686 C.ar    1  UNL1       -0.0039
     28 C           2.8894   68.4859   67.9554 C.ar    1  UNL1        0.0028
     29 C           3.4097   68.4746   66.6755 C.ar    1  UNL1        0.0369
     30 C           4.3216   67.4964   66.3074 C.ar    1  UNL1        0.1382
     31 C           4.7133   66.5348   67.2277 C.ar    1  UNL1        0.0328
     32 O           4.8352   67.4834   65.0492 O.3     1  UNL1       -0.4755
     33 C           5.3715   68.7122   64.5546 C.3     1  UNL1        0.2053
     34 C           4.6286   69.1164   63.2797 C.3     1  UNL1        0.0438
     35 C           3.2847   68.3874   63.2197 C.3     1  UNL1        0.0037
     36 C           2.5418   68.7916   61.9446 C.3     1  UNL1        0.0001
     37 C           3.3820   68.4135   60.7232 C.3     1  UNL1        0.0000
     38 C           4.7259   69.1424   60.7832 C.3     1  UNL1        0.0001
     39 C           5.4688   68.7383   62.0582 C.3     1  UNL1        0.0037
@<TRIPOS>UNITY_ATOM_ATTR
2 1
charge 1
@<TRIPOS>BOND
     1    14    15    1
     2    15    23   ar
     3    15    16   ar
     4    16    21   ar
     5    16    17   ar
     6    17    18   ar
     7    18    19   ar
     8    18     8    1
     9    19    20   ar
    10    20    21   ar
    11    21    22   ar
    12    22    23   ar
    13     8    13   ar
    14     8     9   ar
    15     9    10   ar
    16    10    11   ar
    17    10     7    1
    18    11    12   ar
    19    12    13   ar
    20     7     6    1
    21     6     1    1
    22     1    25    1
    23     1     2    1
    24    25    26    1
    25    26    31   ar
    26    26    27   ar
    27    27    28   ar
    28    28    29   ar
    29    29    30   ar
    30    30    31   ar
    31    30    32    1
    32    32    33    1
    33    33    34    1
    34    34    39    1
    35    34    35    1
    36    35    36    1
    37    36    37    1
    38    37    38    1
    39    38    39    1
    40    22    24    1
    41     2     3    1
    42     2     4    1
    43     2     5    1
#	Name:			ZINC16138012
#	Creating user name:	trannguyen
#	Creation time:		Thu Dec  1 16:45:04 2022


#	Modifying user name:	trannguyen
#	Modification time:	Thu Dec  1 16:45:04 2022

@<TRIPOS>MOLECULE
ZINC16138012
 16 18 0 0 0
SMALL
GASTEIGER

@<TRIPOS>ATOM
      1 C           0.6363   61.1599   72.2054 C.2     1  UNL1        0.2269
      2 N           0.9094   60.5482   73.3430 N.2     1  UNL1       -0.2250
      3 C           0.0044   60.2021   74.2344 C.2     1  UNL1        0.2767
      4 N           0.3139   59.5997   75.3462 N.2     1  UNL1       -0.2326
      5 C          -0.6352   59.1885   76.3911 C.3     1  UNL1        0.2117
      6 C           0.1849   58.5389   77.5254 C.3     1  UNL1        0.0575
      7 C           1.6009   59.1369   77.3139 C.3     1  UNL1        0.0575
      8 C           1.6749   59.2224   75.7690 C.3     1  UNL1        0.2117
      9 C          -1.4316   60.5585   73.8702 C.3     1  UNL1        0.1816
     10 S          -1.1392   61.3607   72.2426 S.3     1  UNL1       -0.0435
     11 H           1.8510   60.3371   73.5375 H       1  UNL1        0.3127
     12 C           2.4706   61.6272   69.0353 C.3     1  UNL1        0.0233
     13 C           2.9467   62.8941   69.8019 C.3     1  UNL1        0.0233
     14 C           2.0125   62.9205   71.0300 C.3     1  UNL1        0.0946
     15 N           1.5091   61.5536   71.2290 N.pl3   1  UNL1       -0.2710
     16 C           2.1017   60.6773   70.2021 C.3     1  UNL1        0.0946
@<TRIPOS>UNITY_ATOM_ATTR
2 1
charge 1
4 1
charge 1
@<TRIPOS>BOND
     1    12    16    1
     2    12    13    1
     3    13    14    1
     4    14    15    1
     5    15    16    1
     6    15     1    1
     7     1    10    1
     8     1     2    2
     9     2     3    1
    10     3     4    2
    11     3     9    1
    12     4     8    1
    13     4     5    1
    14     5     6    1
    15     6     7    1
    16     7     8    1
    17     9    10    1
    18     2    11    1
#	Name:			ZINC16263056
#	Creating user name:	trannguyen
#	Creation time:		Thu Dec  1 16:45:04 2022


#	Modifying user name:	trannguyen
#	Modification time:	Thu Dec  1 16:45:04 2022

@<TRIPOS>MOLECULE
ZINC16263056
 33 36 0 0 0
SMALL
GASTEIGER

@<TRIPOS>ATOM
      1 N          -0.3360   60.6668   75.4346 N.am    1  UNL1       -0.2959
      2 C          -1.5014   60.4831   74.7831 C.2     1  UNL1        0.2290
      3 O          -2.3670   59.7888   75.2726 O.2     1  UNL1       -0.2747
      4 H           0.3666   61.2305   75.0374 H       1  UNL1        0.1501
      5 C          -0.1147   60.0275   76.7341 C.3     1  UNL1        0.1517
      6 C           1.1486   59.2075   76.6820 C.ar    1  UNL1        0.0028
      7 C           1.8565   58.9544   77.8422 C.ar    1  UNL1       -0.0014
      8 C           3.0121   58.1977   77.7958 C.ar    1  UNL1        0.0111
      9 C           3.4666   57.7029   76.5863 C.ar    1  UNL1        0.0577
     10 C           2.7608   57.9614   75.4247 C.ar    1  UNL1        0.0111
     11 C           1.6022   58.7134   75.4732 C.ar    1  UNL1       -0.0014
     12 CL          4.9222   56.7589   76.5261 Cl      1  UNL1       -0.0822
     13 C          -1.4144   59.9841   79.5465 C.3     1  UNL1        0.1317
     14 N          -0.5572   61.0494   79.0204 N.ar    1  UNL1       -0.3101
     15 C          -0.1891   62.1937   79.6753 C.ar    1  UNL1        0.0978
     16 C           0.5968   62.8897   78.8318 C.ar    1  UNL1        0.1189
     17 N           0.7097   62.1872   77.6948 N.ar    1  UNL1       -0.2273
     18 C           0.0171   61.0860   77.7986 C.ar    1  UNL1        0.1428
     19 C          -1.7290   61.1407   73.4463 C.3     1  UNL1        0.1312
     20 C          -0.5025   60.9703   72.5874 C.ar    1  UNL1        0.0766
     21 C          -0.1459   59.7480   72.1226 C.ar    1  UNL1        0.0533
     22 S           1.3298   60.1600   71.2031 S.2     1  UNL1       -0.0512
     23 C           1.3243   61.8674   71.5202 C.ar    1  UNL1        0.1655
     24 N           0.2489   62.0068   72.2710 N.ar    1  UNL1       -0.2278
     25 N           2.2218   62.8371   71.0926 N.am    1  UNL1       -0.2602
     26 C           2.0781   63.3988   69.8760 C.2     1  UNL1        0.2569
     27 O           1.1617   63.0562   69.1519 O.2     1  UNL1       -0.2692
     28 H           2.9630   63.1142   71.6783 H       1  UNL1        0.1571
     29 C           3.0250   64.4220   69.4249 C.ar    1  UNL1        0.0831
     30 C           4.4108   64.3857   69.4131 C.ar    1  UNL1        0.0116
     31 C           5.0610   65.4944   68.9313 C.ar    1  UNL1        0.0076
     32 C           4.3309   66.5550   68.4967 C.ar    1  UNL1        0.0356
     33 S           2.6949   66.0361   68.7404 S.2     1  UNL1       -0.0819
@<TRIPOS>BOND
     1    13    14    1
     2    14    18   ar
     3    14    15   ar
     4    15    16   ar
     5    16    17   ar
     6    17    18   ar
     7    18     5    1
     8     5     6    1
     9     5     1    1
    10     6    11   ar
    11     6     7   ar
    12     7     8   ar
    13     8     9   ar
    14     9    10   ar
    15     9    12    1
    16    10    11   ar
    17     1     2   am
    18     2     3    2
    19     2    19    1
    20    19    20    1
    21    20    24   ar
    22    20    21   ar
    23    21    22   ar
    24    22    23   ar
    25    23    24   ar
    26    23    25    1
    27    25    26   am
    28    26    27    2
    29    26    29    1
    30    29    33   ar
    31    29    30   ar
    32    30    31   ar
    33    31    32   ar
    34    32    33   ar
    35     1     4    1
    36    25    28    1
#	Name:			ZINC16665197
#	Creating user name:	trannguyen
#	Creation time:		Thu Dec  1 16:45:04 2022


#	Modifying user name:	trannguyen
#	Modification time:	Thu Dec  1 16:45:04 2022

@<TRIPOS>MOLECULE
ZINC16665197
 38 40 0 0 0
SMALL
GASTEIGER

@<TRIPOS>ATOM
      1 C           2.8633   61.5947   69.3668 C.3     1  UNL1        0.2737
      2 C           0.3522   60.3880   71.7729 C.ar    1  UNL1        0.2242
      3 N           1.0276   61.1690   70.9325 N.ar    1  UNL1       -0.1947
      4 C           2.1053   60.7092   70.3220 C.ar    1  UNL1        0.1889
      5 N           2.5235   59.4765   70.5508 N.ar    1  UNL1       -0.1951
      6 C           1.8566   58.6914   71.3937 C.ar    1  UNL1        0.2173
      7 N           0.7693   59.1484   72.0054 N.ar    1  UNL1       -0.1810
      8 N           2.2937   57.4043   71.6317 N.pl3   1  UNL1       -0.3273
      9 H           3.0995   57.0663   71.1781 H       1  UNL1        0.1452
     10 H           1.7998   56.8240   72.2550 H       1  UNL1        0.1452
     11 N          -0.7775   60.8677   72.4062 N.pl3   1  UNL1       -0.2824
     12 H          -1.2932   61.6030   72.0029 H       1  UNL1        0.1551
     13 C          -2.4797   59.8137   73.7572 C.ar    1  UNL1        0.0170
     14 C          -2.8820   59.2567   74.9554 C.ar    1  UNL1        0.0309
     15 C          -2.0037   59.2028   76.0245 C.ar    1  UNL1        0.1402
     16 C          -0.7183   59.7009   75.8930 C.ar    1  UNL1        0.0309
     17 C          -0.3100   60.2531   74.6948 C.ar    1  UNL1        0.0170
     18 C          -1.1893   60.3086   73.6214 C.ar    1  UNL1        0.0506
     19 F          -2.4011   58.6630   77.1975 F       1  UNL1       -0.2042
     20 O           3.2243   62.8092   70.0277 O.3     1  UNL1       -0.4370
     21 C           4.3119   63.4596   69.5635 C.2     1  UNL1        0.3418
     22 O           5.4057   63.2390   70.0486 O.2     1  UNL1       -0.2449
     23 C           4.1792   64.4026   68.5161 C.2     1  UNL1        0.0820
     24 C           5.0135   65.4658   68.4535 C.2     1  UNL1        0.0097
     25 C           4.8761   66.4430   67.3683 C.ar    1  UNL1        0.0346
     26 C           5.5706   66.2612   66.1654 C.ar    1  UNL1        0.0061
     27 C           5.4371   67.1693   65.1547 C.ar    1  UNL1        0.0373
     28 C           4.6207   68.2854   65.3141 C.ar    1  UNL1        0.1473
     29 C           3.9299   68.4844   66.5009 C.ar    1  UNL1        0.0741
     30 C           4.0512   67.5696   67.5323 C.ar    1  UNL1        0.1472
     31 O           3.3784   67.7591   68.6953 O.3     1  UNL1       -0.4235
     32 C           2.0527   67.2310   68.7712 C.3     1  UNL1        0.5087
     33 F           1.6185   66.8749   67.4900 F       1  UNL1       -0.1550
     34 F           2.0473   66.1013   69.5963 F       1  UNL1       -0.1550
     35 O           4.5003   69.1838   64.3038 O.3     1  UNL1       -0.4235
     36 C           4.9528   68.7722   63.0123 C.3     1  UNL1        0.5087
     37 F           3.8755   68.7698   62.1197 F       1  UNL1       -0.1550
     38 F           5.9336   69.6599   62.5571 F       1  UNL1       -0.1550
@<TRIPOS>BOND
     1    13    18   ar
     2    13    14   ar
     3    14    15   ar
     4    15    16   ar
     5    15    19    1
     6    16    17   ar
     7    17    18   ar
     8    18    11    1
     9    11     2    1
    10     2     7   ar
    11     2     3   ar
    12     3     4   ar
    13     4     5   ar
    14     4     1    1
    15     5     6   ar
    16     6     7   ar
    17     6     8    1
    18     1    20    1
    19    20    21    1
    20    21    22    2
    21    21    23    1
    22    23    24    2
    23    24    25    1
    24    25    30   ar
    25    25    26   ar
    26    26    27   ar
    27    27    28   ar
    28    28    29   ar
    29    28    35    1
    30    29    30   ar
    31    30    31    1
    32    31    32    1
    33    32    33    1
    34    32    34    1
    35    35    36    1
    36    36    37    1
    37    36    38    1
    38    11    12    1
    39     8     9    1
    40     8    10    1
#	Name:			ZINC16779129
#	Creating user name:	trannguyen
#	Creation time:		Thu Dec  1 16:45:04 2022


#	Modifying user name:	trannguyen
#	Modification time:	Thu Dec  1 16:45:04 2022

@<TRIPOS>MOLECULE
ZINC16779129
 20 23 0 0 0
SMALL
GASTEIGER

@<TRIPOS>ATOM
      1 C          -1.2767   50.5041   77.0224 C.3     1  UNL1        0.1301
      2 C          -2.7012   50.3363   76.6438 C.ar    1  UNL1        0.0435
      3 C          -3.1531   50.4514   75.3653 C.ar    1  UNL1        0.0882
      4 N          -4.4880   50.2625   75.1770 N.ar    1  UNL1       -0.3108
      5 C          -5.2853   49.9849   76.2364 C.ar    1  UNL1        0.2891
      6 O          -6.4881   49.7911   76.2553 O.2     1  UNL1       -0.2596
      7 S          -4.1604   49.9740   77.5622 S.2     1  UNL1       -0.0295
      8 S          -1.9242   50.8387   74.1401 S.3     1  UNL1       -0.0975
      9 C          -0.9061   52.0722   74.9879 C.3     1  UNL1        0.0541
     10 C          -0.6854   51.7818   76.4691 C.3     1  UNL1        0.0256
     11 C          -1.3156   52.9986   77.2179 C.3     1  UNL1        0.0017
     12 C          -2.8514   52.8286   77.0071 C.3     1  UNL1        0.0001
     13 C          -3.0752   53.1227   75.5061 C.3     1  UNL1        0.0009
     14 C          -1.6535   53.4424   74.9505 C.3     1  UNL1        0.0104
     15 C          -1.0103   54.1508   76.1957 C.3     1  UNL1        0.0009
     16 H          -4.8730   50.3275   74.2732 H       1  UNL1        0.1699
     17 C          -0.4892   49.3323   76.4954 C.2     1  UNL1        0.3213
     18 O          -1.0084   48.2446   76.4101 O.2     1  UNL1       -0.2497
     19 C           1.3158   48.5600   75.1443 C.3     1  UNL1        0.2556
     20 O           0.7892   49.4969   76.1206 O.3     1  UNL1       -0.4442
@<TRIPOS>BOND
     1    19    20    1
     2    20    17    1
     3    17    18    2
     4    17     1    1
     5     1    10    1
     6     1     2    1
     7     2     7   ar
     8     2     3   ar
     9     3     4   ar
    10     3     8    1
    11     4     5   ar
    12     5     6    2
    13     5     7   ar
    14     8     9    1
    15     9    14    1
    16     9    10    1
    17    10    11    1
    18    11    15    1
    19    11    12    1
    20    12    13    1
    21    13    14    1
    22    14    15    1
    23     4    16    1
#	Name:			ZINC16954126
#	Creating user name:	trannguyen
#	Creation time:		Thu Dec  1 16:45:04 2022


#	Modifying user name:	trannguyen
#	Modification time:	Thu Dec  1 16:45:04 2022

@<TRIPOS>MOLECULE
ZINC16954126
 42 45 0 0 0
SMALL
GASTEIGER

@<TRIPOS>ATOM
      1 C           4.2756   65.7962   68.8066 C.3     1  UNL1        0.0000
      2 C           5.6728   65.1429   68.9681 C.3     1  UNL1        0.0000
      3 C           5.4279   63.7026   69.5041 C.3     1  UNL1        0.0000
      4 C           4.0173   63.8210   70.0944 C.3     1  UNL1        0.0000
      5 C           3.2852   64.6360   69.0156 C.3     1  UNL1        0.0000
      6 C           1.9205   65.0245   69.5373 C.3     1  UNL1        0.0000
      7 C           1.1415   63.7302   69.8496 C.3     1  UNL1        0.0000
      8 C           1.8678   62.8826   70.8758 C.3     1  UNL1        0.0000
      9 C           3.3108   62.5603   70.5064 C.3     1  UNL1        0.0000
     10 C           3.5032   61.4109   69.5372 C.3     1  UNL1        0.0000
     11 C           2.2988   60.4604   69.5487 C.3     1  UNL1        0.0001
     12 C           1.8307   60.3868   70.9954 C.3     1  UNL1        0.0016
     13 C           1.0814   61.6737   71.3446 C.3     1  UNL1        0.0001
     14 C           0.8834   61.6800   72.8640 C.3     1  UNL1        0.0017
     15 C           0.0530   60.4669   73.2808 C.3     1  UNL1        0.0196
     16 C           0.6511   59.1509   72.8032 C.3     1  UNL1        0.0717
     17 C           0.9829   59.1697   71.3095 C.3     1  UNL1        0.0196
     18 C          -0.2948   61.6613   70.6799 C.3     1  UNL1        0.0000
     19 C           3.1452   63.9179   67.6767 C.3     1  UNL1        0.0000
     20 N           1.8617   58.8494   73.5726 N.am    1  UNL1       -0.3012
     21 C           2.3628   57.5982   73.5776 C.2     1  UNL1        0.2783
     22 O           1.8120   56.7219   72.9456 O.2     1  UNL1       -0.2687
     23 H           2.3089   59.5607   74.0857 H       1  UNL1        0.1496
     24 C           3.6074   57.2882   74.3687 C.3     1  UNL1        0.1883
     25 N           3.3904   56.0543   75.1473 N.4     1  UNL1        0.2614
     26 H           4.2930   55.6668   75.4222 H       1  UNL1        0.2040
     27 H           2.8829   55.3832   74.5707 H       1  UNL1        0.2040
     28 C           2.5968   56.3447   76.3565 C.3     1  UNL1        0.1037
     29 C           3.4867   57.0479   77.3833 C.3     1  UNL1        0.0724
     30 C           2.7388   58.2463   77.9708 C.3     1  UNL1        0.0636
     31 S           0.9520   57.9942   77.7848 S.3     1  UNL1       -0.1409
     32 C           0.4064   59.4231   76.8097 C.3     1  UNL1        0.0477
     33 C          -0.8293   60.0449   77.4635 C.3     1  UNL1        0.0117
     34 C           1.5295   60.4606   76.7526 C.3     1  UNL1        0.0117
     35 C           4.1141   66.3657   67.3979 C.3     1  UNL1        0.0000
     36 C           5.4390   66.2423   66.6429 C.3     1  UNL1        0.0000
     37 C           3.7127   67.8394   67.4864 C.3     1  UNL1        0.0000
     38 C           3.0189   68.2578   66.1886 C.3     1  UNL1        0.0000
     39 C           3.9410   69.1839   65.3930 C.3     1  UNL1        0.0000
     40 C           3.1193   68.6673   63.0907 C.3     1  UNL1        0.0000
     41 C           4.2963   68.5260   64.0582 C.3     1  UNL1        0.0000
     42 C           5.5293   69.2102   63.4646 C.3     1  UNL1        0.0000
@<TRIPOS>UNITY_ATOM_ATTR
25 1
charge 1
@<TRIPOS>BOND
     1    40    41    1
     2    41    42    1
     3    41    39    1
     4    39    38    1
     5    38    37    1
     6    37    35    1
     7    35    36    1
     8    35     1    1
     9     1     5    1
    10     1     2    1
    11     2     3    1
    12     3     4    1
    13     4     9    1
    14     4     5    1
    15     5     6    1
    16     5    19    1
    17     6     7    1
    18     7     8    1
    19     8    13    1
    20     8     9    1
    21     9    10    1
    22    10    11    1
    23    11    12    1
    24    12    17    1
    25    12    13    1
    26    13    14    1
    27    13    18    1
    28    14    15    1
    29    15    16    1
    30    16    17    1
    31    16    20    1
    32    20    21   am
    33    21    22    2
    34    21    24    1
    35    24    25    1
    36    28    29    1
    37    28    25    1
    38    29    30    1
    39    30    31    1
    40    31    32    1
    41    32    33    1
    42    32    34    1
    43    20    23    1
    44    25    26    1
    45    25    27    1
#	Name:			ZINC16997519
#	Creating user name:	trannguyen
#	Creation time:		Thu Dec  1 16:45:04 2022


#	Modifying user name:	trannguyen
#	Modification time:	Thu Dec  1 16:45:04 2022

@<TRIPOS>MOLECULE
ZINC16997519
 42 47 0 0 0
SMALL
GASTEIGER

@<TRIPOS>ATOM
      1 C          -0.0785   59.8978   74.8724 C.ar    1  UNL1        0.0722
      2 C          -1.3632   60.0508   75.3039 C.ar    1  UNL1        0.0806
      3 N          -1.5672   59.2984   76.4119 N.ar    1  UNL1       -0.3205
      4 C          -0.4155   58.6186   76.7512 C.ar    1  UNL1        0.0602
      5 C           0.5677   58.9593   75.8082 C.ar    1  UNL1        0.0216
      6 C           1.8454   58.4142   75.9036 C.ar    1  UNL1        0.0016
      7 C           2.1411   57.5448   76.9310 C.ar    1  UNL1        0.0001
      8 C           1.1696   57.2032   77.8602 C.ar    1  UNL1        0.0015
      9 C          -0.0992   57.7347   77.7773 C.ar    1  UNL1        0.0172
     10 N           0.0278   60.3406   72.4752 N.am    1  UNL1       -0.2803
     11 C           0.5397   60.5414   73.7056 C.2     1  UNL1        0.2510
     12 O           1.5141   61.2559   73.8500 O.2     1  UNL1       -0.2698
     13 H          -0.7973   59.8149   72.3651 H       1  UNL1        0.1552
     14 C           1.9398   61.9461   69.1350 C.ar    1  UNL1        0.0484
     15 C           0.9520   62.6736   69.7866 C.ar    1  UNL1        0.0159
     16 C           0.3189   62.1419   70.8920 C.ar    1  UNL1        0.0159
     17 C           0.6697   60.8797   71.3529 C.ar    1  UNL1        0.0506
     18 C           1.6608   60.1543   70.7048 C.ar    1  UNL1        0.0159
     19 C           2.2902   60.6834   69.5958 C.ar    1  UNL1        0.0159
     20 N           2.5819   62.4852   68.0147 N.pl3   1  UNL1       -0.3125
     21 H           2.3697   62.1461   67.1151 H       1  UNL1        0.1522
     22 C           5.3900   65.5234   68.4862 C.ar    1  UNL1        0.0001
     23 C           5.2105   64.5883   69.4892 C.ar    1  UNL1        0.0013
     24 C           4.2800   63.5793   69.3360 C.ar    1  UNL1        0.0146
     25 C           3.5239   63.5044   68.1728 C.ar    1  UNL1        0.0483
     26 C           3.7110   64.4422   67.1650 C.ar    1  UNL1        0.0146
     27 C           4.6395   65.4516   67.3269 C.ar    1  UNL1        0.0013
     28 C          -2.8324   59.2176   77.1461 C.3     1  UNL1        0.1611
     29 C          -3.7733   58.2429   76.4352 C.3     1  UNL1        0.0789
     30 C          -4.0085   57.0029   77.3175 C.3     1  UNL1        0.0631
     31 C          -5.5348   56.9633   77.5598 C.3     1  UNL1        0.0669
     32 C          -6.0947   57.7962   76.3794 C.3     1  UNL1        0.1057
     33 N          -5.0865   58.8587   76.2392 N.4     1  UNL1        0.2765
     34 H          -5.2429   59.5950   76.9276 H       1  UNL1        0.2069
     35 C          -5.1736   59.4835   74.8851 C.3     1  UNL1        0.1326
     36 C          -5.7493   60.8713   75.0016 C.ar    1  UNL1        0.0328
     37 C          -4.9107   61.9527   75.1975 C.ar    1  UNL1        0.0037
     38 C          -5.4371   63.2265   75.2989 C.ar    1  UNL1        0.0295
     39 C          -6.8058   63.4180   75.2157 C.ar    1  UNL1        0.1401
     40 C          -7.6452   62.3335   75.0251 C.ar    1  UNL1        0.0295
     41 C          -7.1161   61.0613   74.9179 C.ar    1  UNL1        0.0037
     42 F          -7.3220   64.6621   75.3211 F       1  UNL1       -0.2042
@<TRIPOS>UNITY_ATOM_ATTR
33 1
charge 1
@<TRIPOS>BOND
     1    22    27   ar
     2    22    23   ar
     3    23    24   ar
     4    24    25   ar
     5    25    26   ar
     6    25    20    1
     7    26    27   ar
     8    20    14    1
     9    14    19   ar
    10    14    15   ar
    11    15    16   ar
    12    16    17   ar
    13    17    18   ar
    14    17    10    1
    15    18    19   ar
    16    10    11   am
    17    11    12    2
    18    11     1    1
    19     1     5   ar
    20     1     2   ar
    21     2     3   ar
    22     3     4   ar
    23     3    28    1
    24     4     9   ar
    25     4     5   ar
    26     5     6   ar
    27     6     7   ar
    28     7     8   ar
    29     8     9   ar
    30    28    29    1
    31    29    30    1
    32    29    33    1
    33    30    31    1
    34    31    32    1
    35    32    33    1
    36    35    36    1
    37    35    33    1
    38    36    41   ar
    39    36    37   ar
    40    37    38   ar
    41    38    39   ar
    42    39    40   ar
    43    39    42    1
    44    40    41   ar
    45    20    21    1
    46    10    13    1
    47    33    34    1
#	Name:			ZINC17036676
#	Creating user name:	trannguyen
#	Creation time:		Thu Dec  1 16:45:04 2022


#	Modifying user name:	trannguyen
#	Modification time:	Thu Dec  1 16:45:04 2022

@<TRIPOS>MOLECULE
ZINC17036676
 38 41 0 0 0
SMALL
GASTEIGER

@<TRIPOS>ATOM
      1 C           0.2092   60.2457   73.4975 C.ar    1  UNL1        0.0719
      2 C           0.8881   59.7881   74.5881 C.ar    1  UNL1        0.0804
      3 N           0.0341   59.6337   75.6283 N.ar    1  UNL1       -0.3257
      4 C          -1.2466   59.9869   75.2563 C.ar    1  UNL1        0.0601
      5 C          -1.1994   60.3853   73.9105 C.ar    1  UNL1        0.0216
      6 C          -2.3617   60.7943   73.2621 C.ar    1  UNL1        0.0016
      7 C          -3.5551   60.8161   73.9506 C.ar    1  UNL1        0.0001
      8 C          -3.6037   60.4224   75.2797 C.ar    1  UNL1        0.0015
      9 C          -2.4619   60.0105   75.9323 C.ar    1  UNL1        0.0172
     10 N           1.0402   61.8155   71.8242 N.am    1  UNL1       -0.3024
     11 C           0.7706   60.5418   72.1726 C.2     1  UNL1        0.2473
     12 O           0.9922   59.6371   71.3898 O.2     1  UNL1       -0.2701
     13 H           0.8609   62.5476   72.4575 H       1  UNL1        0.1497
     14 C           1.6001   62.1107   70.5030 C.3     1  UNL1        0.0721
     15 C           0.5433   62.8105   69.6460 C.3     1  UNL1        0.0213
     16 C           2.8179   63.0239   70.6576 C.3     1  UNL1        0.0257
     17 C           3.1117   63.7123   69.3231 C.3     1  UNL1        0.0626
     18 C           2.8425   65.2128   69.4532 C.3     1  UNL1        0.1053
     19 N           4.0787   65.9499   69.1163 N.4     1  UNL1        0.2758
     20 H           4.6226   66.0914   69.9676 H       1  UNL1        0.2067
     21 C           5.3711   66.0631   67.0119 C.3     1  UNL1        0.0670
     22 C           4.8860   65.1695   68.1551 C.3     1  UNL1        0.1055
     23 C           3.7396   67.2674   68.5386 C.3     1  UNL1        0.1055
     24 C           2.2542   67.2757   68.1721 C.3     1  UNL1        0.0670
     25 C           0.4165   59.1587   76.9603 C.3     1  UNL1        0.1119
     26 C           0.7221   57.6608   76.8994 C.3     1  UNL1        0.0780
     27 C           1.9347   57.3501   77.7812 C.3     1  UNL1        0.0139
     28 C           2.1961   55.8415   77.7628 C.3     1  UNL1        0.0612
     29 C           0.9439   55.1050   78.2442 C.3     1  UNL1        0.1057
     30 C          -0.4873   56.8716   77.4056 C.3     1  UNL1        0.1074
     31 N          -0.1798   55.4272   77.3389 N.4     1  UNL1        0.2797
     32 H           0.0874   55.1902   76.3835 H       1  UNL1        0.2071
     33 C          -1.3720   54.6395   77.7148 C.3     1  UNL1        0.1393
     34 C          -1.6921   53.6691   76.6071 C.ar    1  UNL1        0.0621
     35 C          -1.3259   53.7117   75.3027 C.ar    1  UNL1        0.0084
     36 C          -1.7394   52.6995   74.4571 C.ar    1  UNL1        0.0074
     37 C          -2.4988   51.6942   74.9572 C.ar    1  UNL1        0.0353
     38 S          -2.6452   52.1611   76.6741 S.2     1  UNL1       -0.0850
@<TRIPOS>UNITY_ATOM_ATTR
19 1
charge 1
31 1
charge 1
@<TRIPOS>BOND
     1    21    22    1
     2    22    19    1
     3    23    24    1
     4    23    19    1
     5    18    17    1
     6    18    19    1
     7    17    16    1
     8    16    14    1
     9    14    15    1
    10    14    10    1
    11    10    11   am
    12    11    12    2
    13    11     1    1
    14     1     5   ar
    15     1     2   ar
    16     2     3   ar
    17     3     4   ar
    18     3    25    1
    19     4     9   ar
    20     4     5   ar
    21     5     6   ar
    22     6     7   ar
    23     7     8   ar
    24     8     9   ar
    25    25    26    1
    26    26    30    1
    27    26    27    1
    28    27    28    1
    29    28    29    1
    30    29    31    1
    31    30    31    1
    32    33    34    1
    33    33    31    1
    34    34    38   ar
    35    34    35   ar
    36    35    36   ar
    37    36    37   ar
    38    37    38   ar
    39    10    13    1
    40    19    20    1
    41    31    32    1
#	Name:			ZINC17036941
#	Creating user name:	trannguyen
#	Creation time:		Thu Dec  1 16:45:04 2022


#	Modifying user name:	trannguyen
#	Modification time:	Thu Dec  1 16:45:04 2022

@<TRIPOS>MOLECULE
ZINC17036941
 41 46 0 0 0
SMALL
GASTEIGER

@<TRIPOS>ATOM
      1 C          -2.0768   60.3758   74.2774 C.ar    1  UNL1        0.0722
      2 C          -1.5153   59.6269   75.2694 C.ar    1  UNL1        0.0804
      3 N          -2.4418   59.3577   76.2207 N.ar    1  UNL1       -0.3257
      4 C          -3.6544   59.9241   75.8858 C.ar    1  UNL1        0.0601
      5 C          -3.4855   60.5858   74.6587 C.ar    1  UNL1        0.0216
      6 C          -4.5583   61.2499   74.0701 C.ar    1  UNL1        0.0016
      7 C          -5.7823   61.2635   74.7029 C.ar    1  UNL1        0.0001
      8 C          -5.9508   60.6108   75.9152 C.ar    1  UNL1        0.0015
      9 C          -4.8990   59.9448   76.5061 C.ar    1  UNL1        0.0172
     10 N          -0.0674   60.8085   72.9624 N.am    1  UNL1       -0.2803
     11 C          -1.4094   60.8751   73.0678 C.2     1  UNL1        0.2510
     12 O          -2.0682   61.3487   72.1610 O.2     1  UNL1       -0.2698
     13 H           0.4684   60.4583   73.7104 H       1  UNL1        0.1552
     14 C           1.8146   62.0863   69.4673 C.ar    1  UNL1        0.0484
     15 C           2.0374   60.8017   69.9464 C.ar    1  UNL1        0.0159
     16 C           1.4145   60.3789   71.1036 C.ar    1  UNL1        0.0159
     17 C           0.5649   61.2377   71.7885 C.ar    1  UNL1        0.0506
     18 C           0.3376   62.5202   71.3065 C.ar    1  UNL1        0.0159
     19 C           0.9651   62.9454   70.1527 C.ar    1  UNL1        0.0159
     20 N           2.4455   62.5148   68.2941 N.pl3   1  UNL1       -0.3125
     21 H           2.1903   62.1243   67.4271 H       1  UNL1        0.1522
     22 C           5.4024   65.4413   68.4698 C.ar    1  UNL1        0.0001
     23 C           5.2491   64.5517   69.5174 C.ar    1  UNL1        0.0013
     24 C           4.2693   63.5801   69.4626 C.ar    1  UNL1        0.0146
     25 C           3.4374   63.4966   68.3531 C.ar    1  UNL1        0.0483
     26 C           3.5979   64.3884   67.2998 C.ar    1  UNL1        0.0146
     27 C           4.5760   65.3611   67.3638 C.ar    1  UNL1        0.0013
     28 C          -2.1912   58.5755   77.4338 C.3     1  UNL1        0.1119
     29 C          -2.6239   57.1260   77.2045 C.3     1  UNL1        0.0780
     30 C          -3.4386   56.6395   78.4062 C.3     1  UNL1        0.0139
     31 C          -3.8155   55.1703   78.1961 C.3     1  UNL1        0.0612
     32 C          -2.5418   54.3436   78.0049 C.3     1  UNL1        0.1057
     33 C          -1.3849   56.2426   77.0419 C.3     1  UNL1        0.1074
     34 N          -1.8169   54.8467   76.8186 N.4     1  UNL1        0.2797
     35 H          -2.4422   54.8194   76.0132 H       1  UNL1        0.2071
     36 C          -0.6427   53.9925   76.5453 C.3     1  UNL1        0.1393
     37 C          -1.0910   52.7891   75.7566 C.ar    1  UNL1        0.0621
     38 C          -1.3282   52.6803   74.4265 C.ar    1  UNL1        0.0084
     39 C          -1.7362   51.4624   73.9159 C.ar    1  UNL1        0.0074
     40 C          -1.8868   50.4128   74.7602 C.ar    1  UNL1        0.0353
     41 S          -1.4396   51.1349   76.3304 S.2     1  UNL1       -0.0850
@<TRIPOS>UNITY_ATOM_ATTR
34 1
charge 1
@<TRIPOS>BOND
     1    22    27   ar
     2    22    23   ar
     3    23    24   ar
     4    24    25   ar
     5    25    26   ar
     6    25    20    1
     7    26    27   ar
     8    20    14    1
     9    14    19   ar
    10    14    15   ar
    11    15    16   ar
    12    16    17   ar
    13    17    18   ar
    14    17    10    1
    15    18    19   ar
    16    10    11   am
    17    11    12    2
    18    11     1    1
    19     1     5   ar
    20     1     2   ar
    21     2     3   ar
    22     3     4   ar
    23     3    28    1
    24     4     9   ar
    25     4     5   ar
    26     5     6   ar
    27     6     7   ar
    28     7     8   ar
    29     8     9   ar
    30    28    29    1
    31    29    33    1
    32    29    30    1
    33    30    31    1
    34    31    32    1
    35    32    34    1
    36    33    34    1
    37    36    37    1
    38    36    34    1
    39    37    41   ar
    40    37    38   ar
    41    38    39   ar
    42    39    40   ar
    43    40    41   ar
    44    20    21    1
    45    10    13    1
    46    34    35    1
#	Name:			ZINC17125135
#	Creating user name:	trannguyen
#	Creation time:		Thu Dec  1 16:45:04 2022


#	Modifying user name:	trannguyen
#	Modification time:	Thu Dec  1 16:45:04 2022

@<TRIPOS>MOLECULE
ZINC17125135
 12 12 0 0 0
SMALL
GASTEIGER

@<TRIPOS>ATOM
      1 C           3.4151   63.4816   65.8464 C.3     1  UNL1        0.1173
      2 N           3.8913   64.1009   67.0857 N.pl3   1  UNL1       -0.2840
      3 C           4.6364   65.2362   67.0303 C.2     1  UNL1        0.0654
      4 C           5.0807   65.8269   68.1634 C.2     1  UNL1        0.0161
      5 C           4.7819   65.2694   69.4150 C.2     1  UNL1        0.0026
      6 C           4.0400   64.1276   69.4830 C.2     1  UNL1        0.0151
      7 C           3.5869   63.5288   68.2932 C.2     1  UNL1        0.0581
      8 C           2.8251   62.3591   68.3429 C.2     1  UNL1        0.0967
      9 C           2.3534   61.8884   69.5622 C.2     1  UNL1        0.3428
     10 O           1.3364   62.3586   70.0455 O.2     1  UNL1       -0.2448
     11 O           3.0215   60.9089   70.2132 O.3     1  UNL1       -0.4413
     12 C           2.3560   59.6521   70.3531 C.3     1  UNL1        0.2560
@<TRIPOS>BOND
     1     1     2    1
     2     2     7    1
     3     2     3    1
     4     3     4    2
     5     4     5    1
     6     5     6    2
     7     6     7    1
     8     7     8    2
     9     8     9    1
    10     9    10    2
    11     9    11    1
    12    11    12    1
#	Name:			ZINC17153213
#	Creating user name:	trannguyen
#	Creation time:		Thu Dec  1 16:45:04 2022


#	Modifying user name:	trannguyen
#	Modification time:	Thu Dec  1 16:45:04 2022

@<TRIPOS>MOLECULE
ZINC17153213
 31 34 0 0 0
SMALL
GASTEIGER

@<TRIPOS>ATOM
      1 C          -0.4312   60.1299   74.2802 C.ar    1  UNL1        0.1746
      2 N           0.8308   59.8366   74.5200 N.ar    1  UNL1       -0.2157
      3 C           1.2412   59.5452   75.7482 C.ar    1  UNL1        0.1171
      4 C           0.3592   59.5240   76.8453 C.ar    1  UNL1        0.0766
      5 C           0.9718   59.1813   78.1172 C.ar    1  UNL1       -0.0094
      6 C           2.2861   58.9178   78.1614 C.ar    1  UNL1        0.0328
      7 S           2.8052   59.1144   76.4673 S.2     1  UNL1       -0.0676
      8 C          -1.0047   59.8413   76.5534 C.ar    1  UNL1        0.2642
      9 O          -1.8405   59.8485   77.4408 O.2     1  UNL1       -0.2669
     10 N          -1.3533   60.1322   75.2866 N.ar    1  UNL1       -0.2714
     11 C           0.1400   59.1222   79.3724 C.3     1  UNL1        0.0231
     12 C           0.7736   58.4843   80.6104 C.3     1  UNL1        0.0047
     13 C          -0.3263   57.7442   79.8466 C.3     1  UNL1        0.0047
     14 S          -0.9367   60.5175   72.6374 S.3     1  UNL1       -0.0674
     15 C           0.6377   60.3139   71.7679 C.3     1  UNL1        0.1502
     16 N           1.4719   61.8076   69.9815 N.am    1  UNL1       -0.2525
     17 C           1.1147   61.6546   71.2720 C.2     1  UNL1        0.2397
     18 O           1.1774   62.5958   72.0342 O.2     1  UNL1       -0.2737
     19 H           1.4249   61.0425   69.3637 H       1  UNL1        0.1578
     20 C           3.0795   64.7509   68.8293 C.ar    1  UNL1        0.1014
     21 C           3.1932   63.4143   69.2620 C.ar    1  UNL1        0.0741
     22 C           1.9056   63.0433   69.5236 C.ar    1  UNL1        0.2322
     23 O           1.1426   64.1117   69.2434 O.2     1  UNL1       -0.3384
     24 N           1.8107   65.0464   68.8669 N.ar    1  UNL1       -0.0798
     25 C           5.4846   65.2656   69.1450 C.3     1  UNL1        0.0060
     26 C           4.2045   65.6598   68.4057 C.3     1  UNL1        0.0388
     27 C           4.4256   65.5286   66.8974 C.3     1  UNL1        0.0060
     28 C           3.8453   67.1080   68.7443 C.3     1  UNL1        0.0060
     29 C          -2.7488   60.4577   74.9819 C.3     1  UNL1        0.1374
     30 C          -3.5569   59.1877   74.9110 C.2     1  UNL1       -0.0016
     31 C          -4.8401   59.2415   74.6525 C.2     1  UNL1       -0.0029
@<TRIPOS>BOND
     1    25    26    1
     2    26    27    1
     3    26    28    1
     4    26    20    1
     5    20    24   ar
     6    20    21   ar
     7    21    22   ar
     8    22    23   ar
     9    22    16    1
    10    23    24   ar
    11    16    17   am
    12    17    18    2
    13    17    15    1
    14    15    14    1
    15    14     1    1
    16     1    10   ar
    17     1     2   ar
    18     2     3   ar
    19     3     7   ar
    20     3     4   ar
    21     4     5   ar
    22     4     8   ar
    23     5     6   ar
    24     5    11    1
    25     6     7   ar
    26    11    13    1
    27    11    12    1
    28    12    13    1
    29     8     9    2
    30     8    10   ar
    31    10    29    1
    32    29    30    1
    33    30    31    2
    34    16    19    1
#	Name:			ZINC17161787
#	Creating user name:	trannguyen
#	Creation time:		Thu Dec  1 16:45:04 2022


#	Modifying user name:	trannguyen
#	Modification time:	Thu Dec  1 16:45:04 2022

@<TRIPOS>MOLECULE
ZINC17161787
 24 27 0 0 0
SMALL
GASTEIGER

@<TRIPOS>ATOM
      1 C          -1.4207   49.1650   77.5056 C.3     1  UNL1        0.0307
      2 C          -2.0941   50.2234   76.6672 C.ar    1  UNL1       -0.0257
      3 C          -3.4170   49.9684   76.3223 C.ar    1  UNL1       -0.0046
      4 C          -4.1748   50.9481   75.7159 C.ar    1  UNL1       -0.0006
      5 C          -3.6239   52.1943   75.5050 C.ar    1  UNL1       -0.0023
      6 C          -2.2949   52.4411   75.8145 C.ar    1  UNL1        0.0003
      7 C          -1.5031   51.4090   76.3265 C.ar    1  UNL1       -0.0241
      8 C          -0.0562   51.7641   76.4883 C.3     1  UNL1        0.0436
      9 C           0.9185   50.7510   76.9386 C.ar    1  UNL1       -0.0241
     10 C           1.2093   49.6477   76.1421 C.ar    1  UNL1       -0.0257
     11 C           2.0510   48.6491   76.5922 C.ar    1  UNL1       -0.0046
     12 C           2.6287   48.7376   77.8437 C.ar    1  UNL1       -0.0006
     13 C           2.4400   49.8838   78.5918 C.ar    1  UNL1       -0.0023
     14 C           1.6502   50.9094   78.1078 C.ar    1  UNL1        0.0003
     15 C           1.5905   52.2038   78.8810 C.3     1  UNL1        0.1324
     16 C           1.3147   53.3404   77.8851 C.3     1  UNL1        0.0346
     17 C          -0.0553   53.0732   77.2804 C.3     1  UNL1        0.0136
     18 C          -0.4635   54.1681   76.2954 C.3     1  UNL1        0.0346
     19 C          -1.7930   53.8446   75.6325 C.3     1  UNL1        0.1324
     20 O          -1.6942   54.1201   74.2297 O.3     1  UNL1       -0.3801
     21 O           2.8430   52.4390   79.5175 O.3     1  UNL1       -0.3801
     22 C           0.6306   49.5261   74.7549 C.3     1  UNL1        0.0307
     23 H          -1.0349   53.5313   73.8303 H       1  UNL1        0.2108
     24 H           3.5429   52.4842   78.8474 H       1  UNL1        0.2108
@<TRIPOS>BOND
     1     1     2    1
     2     2     7   ar
     3     2     3   ar
     4     3     4   ar
     5     4     5   ar
     6     5     6   ar
     7     6    19    1
     8     6     7   ar
     9     7     8    1
    10     8    17    1
    11     8     9    1
    12     9    14   ar
    13     9    10   ar
    14    10    11   ar
    15    10    22    1
    16    11    12   ar
    17    12    13   ar
    18    13    14   ar
    19    14    15    1
    20    15    16    1
    21    15    21    1
    22    16    17    1
    23    17    18    1
    24    18    19    1
    25    19    20    1
    26    20    23    1
    27    21    24    1
#	Name:			ZINC17175704
#	Creating user name:	trannguyen
#	Creation time:		Thu Dec  1 16:45:04 2022


#	Modifying user name:	trannguyen
#	Modification time:	Thu Dec  1 16:45:04 2022

@<TRIPOS>MOLECULE
ZINC17175704
 23 26 0 0 0
SMALL
GASTEIGER

@<TRIPOS>ATOM
      1 C          -5.5674   57.5362   76.7285 C.3     1  UNL1        0.1708
      2 N          -4.1079   57.6660   76.6244 N.4     1  UNL1        0.3050
      3 C          -3.7327   57.6870   75.2103 C.3     1  UNL1        0.1097
      4 C          -4.3996   58.8654   74.4891 C.3     1  UNL1        0.0691
      5 C          -3.8610   60.1547   75.1399 C.3     1  UNL1        0.0472
      6 C          -4.3906   61.3816   74.4352 C.3     1  UNL1        0.0086
      7 C          -5.7390   61.8113   75.0140 C.3     1  UNL1        0.0053
      8 C          -5.5493   62.1605   76.4941 C.3     1  UNL1        0.0256
      9 C          -4.9813   60.9596   77.2035 C.2     1  UNL1       -0.0289
     10 C          -4.2455   60.0893   76.5956 C.2     1  UNL1        0.0041
     11 C          -3.6878   58.8794   77.3261 C.3     1  UNL1        0.0821
     12 C          -2.1719   59.0098   77.3589 C.3     1  UNL1        0.0857
     13 C          -1.5984   59.5427   76.0747 C.ar    1  UNL1       -0.0167
     14 C          -2.3517   60.0860   75.0576 C.ar    1  UNL1        0.0140
     15 C          -1.7385   60.5863   73.9166 C.ar    1  UNL1        0.1636
     16 C          -0.3558   60.5315   73.7832 C.ar    1  UNL1        0.1718
     17 C           0.4022   59.9709   74.7982 C.ar    1  UNL1        0.0397
     18 C          -0.2144   59.4822   75.9302 C.ar    1  UNL1       -0.0010
     19 O          -2.4935   61.1316   72.9256 O.3     1  UNL1       -0.5031
     20 C          -3.4812   56.5028   77.2665 C.3     1  UNL1        0.1708
     21 H          -3.4256   61.1695   73.0136 H       1  UNL1        0.2923
     22 O           0.2466   61.0235   72.6676 O.3     1  UNL1       -0.4684
     23 C           0.7399   60.0713   71.7232 C.3     1  UNL1        0.2526
@<TRIPOS>UNITY_ATOM_ATTR
2 1
charge 1
@<TRIPOS>BOND
     1     1     2    1
     2     2    11    1
     3     2     3    1
     4     2    20    1
     5     3     4    1
     6     4     5    1
     7     5    10    1
     8     5    14    1
     9     5     6    1
    10     6     7    1
    11     7     8    1
    12     8     9    1
    13     9    10    2
    14    10    11    1
    15    11    12    1
    16    12    13    1
    17    13    18   ar
    18    13    14   ar
    19    14    15   ar
    20    15    16   ar
    21    15    19    1
    22    16    17   ar
    23    16    22    1
    24    17    18   ar
    25    22    23    1
    26    19    21    1
#	Name:			ZINC17195882
#	Creating user name:	trannguyen
#	Creation time:		Thu Dec  1 16:45:04 2022


#	Modifying user name:	trannguyen
#	Modification time:	Thu Dec  1 16:45:04 2022

@<TRIPOS>MOLECULE
ZINC17195882
 41 45 0 0 0
SMALL
GASTEIGER

@<TRIPOS>ATOM
      1 C           2.9487   65.4309   69.1545 C.2     1  UNL1       -0.0030
      2 C           3.0984   64.1067   68.9503 C.2     1  UNL1       -0.0055
      3 C           3.5669   63.5563   67.6182 C.3     1  UNL1        0.0277
      4 C           2.6528   62.3900   67.2291 C.3     1  UNL1        0.0052
      5 C           2.6782   61.3232   68.3244 C.3     1  UNL1        0.0081
      6 C           2.0490   61.8798   69.6056 C.3     1  UNL1        0.0640
      7 C           2.8135   63.1234   70.0128 C.2     1  UNL1        0.0942
      8 N           3.1993   63.3143   71.2378 N.2     1  UNL1       -0.0911
      9 O           2.7377   62.4584   72.2670 O.2     1  UNL1       -0.4090
     10 H           3.0162   62.5961   73.1510 H       1  UNL1        0.3278
     11 C           4.3025   68.1945   66.2335 C.ar    1  UNL1        0.1453
     12 C           3.1671   68.4793   66.9828 C.ar    1  UNL1        0.0375
     13 C           2.7237   67.5855   67.9321 C.ar    1  UNL1        0.0031
     14 C           3.4179   66.3891   68.1414 C.ar    1  UNL1       -0.0001
     15 C           4.5633   66.1095   67.3883 C.ar    1  UNL1        0.0031
     16 C           4.9957   67.0074   66.4377 C.ar    1  UNL1        0.0375
     17 O           4.7356   69.0788   65.2985 O.3     1  UNL1       -0.4535
     18 C           3.8739   68.2918   61.3417 C.ar    1  UNL1        0.0002
     19 C           2.8532   68.3439   62.2732 C.ar    1  UNL1        0.0031
     20 C           3.1391   68.6069   63.5988 C.ar    1  UNL1        0.0375
     21 C           4.4518   68.8194   63.9953 C.ar    1  UNL1        0.1453
     22 C           5.4735   68.7723   63.0575 C.ar    1  UNL1        0.0375
     23 C           5.1827   68.5032   61.7342 C.ar    1  UNL1        0.0031
     24 C           2.1359   60.8338   70.7188 C.3     1  UNL1        0.1075
     25 C           0.8163   60.7602   71.4430 C.ar    1  UNL1       -0.0053
     26 C           0.5016   59.6414   72.1920 C.ar    1  UNL1        0.0002
     27 C          -0.7073   59.5713   72.8568 C.ar    1  UNL1        0.0372
     28 C          -1.6062   60.6250   72.7723 C.ar    1  UNL1        0.1453
     29 C          -1.2879   61.7466   72.0198 C.ar    1  UNL1        0.0372
     30 C          -0.0777   61.8115   71.3571 C.ar    1  UNL1        0.0002
     31 O          -2.7962   60.5584   73.4249 O.3     1  UNL1       -0.4535
     32 C          -2.8750   59.7703   74.5290 C.ar    1  UNL1        0.1453
     33 C          -3.7591   58.7012   74.5580 C.ar    1  UNL1        0.0375
     34 C          -3.8328   57.8978   75.6794 C.ar    1  UNL1        0.0031
     35 C          -3.0355   58.1657   76.7769 C.ar    1  UNL1        0.0002
     36 C          -2.1579   59.2339   76.7527 C.ar    1  UNL1        0.0031
     37 C          -2.0758   60.0367   75.6315 C.ar    1  UNL1        0.0375
     38 N           2.4480   59.5223   70.1354 N.4     1  UNL1       -0.1905
     39 O           3.5003   58.8475   70.8954 O.3     1  UNL1       -0.3141
     40 H           2.7618   59.6513   69.1735 H       1  UNL1        0.1547
     41 H           3.2075   58.7219   71.8116 H       1  UNL1        0.2363
@<TRIPOS>BOND
     1    18    23   ar
     2    18    19   ar
     3    19    20   ar
     4    20    21   ar
     5    21    22   ar
     6    21    17    1
     7    22    23   ar
     8    17    11    1
     9    11    16   ar
    10    11    12   ar
    11    12    13   ar
    12    13    14   ar
    13    14    15   ar
    14    14     1    1
    15    15    16   ar
    16     1     2    2
    17     2     7    1
    18     2     3    1
    19     3     4    1
    20     4     5    1
    21     5     6    1
    22     6     7    1
    23     6    24    1
    24     7     8    2
    25     8     9    1
    26    24    25    1
    27    24    38    1
    28    25    30   ar
    29    25    26   ar
    30    26    27   ar
    31    27    28   ar
    32    28    29   ar
    33    28    31    1
    34    29    30   ar
    35    31    32    1
    36    32    37   ar
    37    32    33   ar
    38    33    34   ar
    39    34    35   ar
    40    35    36   ar
    41    36    37   ar
    42    38    39    1
    43     9    10    1
    44    38    40    1
    45    39    41    1
#	Name:			ZINC17198451
#	Creating user name:	trannguyen
#	Creation time:		Thu Dec  1 16:45:04 2022


#	Modifying user name:	trannguyen
#	Modification time:	Thu Dec  1 16:45:04 2022

@<TRIPOS>MOLECULE
ZINC17198451
 29 32 0 0 0
SMALL
GASTEIGER

@<TRIPOS>ATOM
      1 C          -4.2706   58.4475   77.1081 C.3     1  UNL1        0.1540
      2 N          -2.8640   58.0590   76.8925 N.am    1  UNL1       -0.2434
      3 C          -2.5836   56.8131   76.5329 C.2     1  UNL1        0.2413
      4 O          -1.4398   56.4549   76.3464 O.2     1  UNL1       -0.2736
      5 C          -3.7479   55.8493   76.3676 C.3     1  UNL1        0.1448
      6 S          -5.1604   57.0357   76.3223 S.3     1  UNL1       -0.1065
      7 C          -4.9468   62.1192   76.4832 C.ar    1  UNL1        0.1721
      8 C          -5.1699   62.1249   75.1157 C.ar    1  UNL1        0.0400
      9 C          -5.1015   60.9445   74.3994 C.ar    1  UNL1        0.0031
     10 C          -4.8059   59.7575   75.0435 C.ar    1  UNL1        0.0014
     11 C          -4.5875   59.7441   76.4085 C.ar    1  UNL1        0.0434
     12 C          -4.6544   60.9237   77.1325 C.ar    1  UNL1        0.1707
     13 C          -6.1788   64.0860   77.0029 C.3     1  UNL1        0.2526
     14 O          -5.0141   63.2794   77.1895 O.3     1  UNL1       -0.4684
     15 O          -4.4352   60.9129   78.4746 O.3     1  UNL1       -0.4686
     16 C          -5.5859   60.8473   79.3193 C.3     1  UNL1        0.2526
     17 C          -1.8363   58.9963   77.0599 C.ar    1  UNL1        0.0894
     18 C          -1.4022   59.3325   78.3338 C.ar    1  UNL1        0.0180
     19 C          -0.3881   60.2571   78.4964 C.ar    1  UNL1        0.0015
     20 C           0.1963   60.8491   77.3918 C.ar    1  UNL1        0.0032
     21 C          -0.2272   60.5156   76.1189 C.ar    1  UNL1        0.0388
     22 C          -1.2472   59.5932   75.9473 C.ar    1  UNL1        0.1588
     23 O          -1.6681   59.2675   74.6963 O.3     1  UNL1       -0.4522
     24 C          -1.1352   59.9466   73.6470 C.ar    1  UNL1        0.1454
     25 C           0.0929   59.5666   73.1248 C.ar    1  UNL1        0.0375
     26 C           0.6325   60.2588   72.0580 C.ar    1  UNL1        0.0031
     27 C          -0.0502   61.3294   71.5106 C.ar    1  UNL1        0.0002
     28 C          -1.2740   61.7104   72.0294 C.ar    1  UNL1        0.0031
     29 C          -1.8177   61.0220   73.0964 C.ar    1  UNL1        0.0375
@<TRIPOS>BOND
     1    13    14    1
     2    14     7    1
     3     7    12   ar
     4     7     8   ar
     5     8     9   ar
     6     9    10   ar
     7    10    11   ar
     8    11    12   ar
     9    11     1    1
    10    12    15    1
    11    15    16    1
    12     1     6    1
    13     1     2    1
    14     2     3   am
    15     2    17    1
    16     3     4    2
    17     3     5    1
    18     5     6    1
    19    17    22   ar
    20    17    18   ar
    21    18    19   ar
    22    19    20   ar
    23    20    21   ar
    24    21    22   ar
    25    22    23    1
    26    23    24    1
    27    24    29   ar
    28    24    25   ar
    29    25    26   ar
    30    26    27   ar
    31    27    28   ar
    32    28    29   ar
#	Name:			ZINC17249773
#	Creating user name:	trannguyen
#	Creation time:		Thu Dec  1 16:45:04 2022


#	Modifying user name:	trannguyen
#	Modification time:	Thu Dec  1 16:45:04 2022

@<TRIPOS>MOLECULE
ZINC17249773
 41 44 0 0 0
SMALL
GASTEIGER

@<TRIPOS>ATOM
      1 C           0.9835   59.4143   73.7731 C.3     1  UNL1        0.1054
      2 C           1.3406   59.3582   75.2602 C.3     1  UNL1        0.0636
      3 C           0.1081   58.9271   76.0600 C.3     1  UNL1        0.0414
      4 C          -1.0348   59.9098   75.7906 C.3     1  UNL1        0.1636
      5 C          -1.3230   59.9500   74.2881 C.3     1  UNL1        0.1270
      6 O          -0.6590   61.2133   76.2394 O.3     1  UNL1       -0.3788
      7 N          -0.1052   60.3952   73.5778 N.4     1  UNL1        0.2766
      8 H           0.1359   61.5022   75.7643 H       1  UNL1        0.2106
      9 H           0.1887   61.2948   73.9580 H       1  UNL1        0.2067
     10 C          -0.3908   60.5519   72.1367 C.3     1  UNL1        0.1150
     11 C          -0.1157   62.0028   71.7367 C.3     1  UNL1        0.1457
     12 N           1.9436   62.2634   70.3911 N.am    1  UNL1       -0.3002
     13 C           1.3709   62.2159   71.6102 C.2     1  UNL1        0.2287
     14 O           2.0518   62.3448   72.6055 O.2     1  UNL1       -0.2749
     15 H           1.3909   62.1588   69.5832 H       1  UNL1        0.1497
     16 C           3.3886   62.4705   70.2682 C.3     1  UNL1        0.1163
     17 C           4.1388   66.3617   68.6735 C.ar    1  UNL1       -0.0000
     18 C           2.8411   65.9542   68.9202 C.ar    1  UNL1       -0.0003
     19 C           2.5984   64.6950   69.4364 C.ar    1  UNL1       -0.0026
     20 C           3.6533   63.8432   69.7055 C.ar    1  UNL1       -0.0026
     21 C           4.9513   64.2527   69.4638 C.ar    1  UNL1       -0.0026
     22 C           5.1938   65.5102   68.9436 C.ar    1  UNL1       -0.0003
     23 C          -2.4512   60.9458   74.0120 C.3     1  UNL1        0.2652
     24 O          -3.3944   60.9270   75.1158 O.3     1  UNL1       -0.4401
     25 C          -4.6705   61.2311   74.8322 C.2     1  UNL1        0.3496
     26 O          -5.1160   61.0028   73.7324 O.2     1  UNL1       -0.2468
     27 C          -5.5496   61.8517   75.8873 C.3     1  UNL1        0.2157
     28 O          -4.7415   62.3008   76.9768 O.3     1  UNL1       -0.3697
     29 H          -4.1055   62.9597   76.6574 H       1  UNL1        0.2117
     30 C          -6.2928   63.0224   75.2970 C.ar    1  UNL1        0.0159
     31 C          -7.5051   62.8230   74.6633 C.ar    1  UNL1       -0.0012
     32 C          -8.1891   63.8975   74.1261 C.ar    1  UNL1       -0.0002
     33 C          -7.6561   65.1699   74.2139 C.ar    1  UNL1       -0.0000
     34 C          -6.4411   65.3684   74.8427 C.ar    1  UNL1       -0.0002
     35 C          -5.7596   64.2947   75.3844 C.ar    1  UNL1       -0.0012
     36 C          -6.5380   60.8279   76.3834 C.ar    1  UNL1        0.0159
     37 C          -7.3913   61.1394   77.4254 C.ar    1  UNL1       -0.0012
     38 C          -8.3012   60.2020   77.8773 C.ar    1  UNL1       -0.0002
     39 C          -8.3510   58.9497   77.2939 C.ar    1  UNL1       -0.0000
     40 C          -7.4937   58.6364   76.2557 C.ar    1  UNL1       -0.0002
     41 C          -6.5874   59.5756   75.8003 C.ar    1  UNL1       -0.0012
@<TRIPOS>UNITY_ATOM_ATTR
7 1
charge 1
@<TRIPOS>BOND
     1    17    22   ar
     2    17    18   ar
     3    18    19   ar
     4    19    20   ar
     5    20    21   ar
     6    20    16    1
     7    21    22   ar
     8    16    12    1
     9    12    13   am
    10    13    14    2
    11    13    11    1
    12    11    10    1
    13    10     7    1
    14     1     2    1
    15     1     7    1
    16     2     3    1
    17     3     4    1
    18     4     5    1
    19     4     6    1
    20     5    23    1
    21     5     7    1
    22    23    24    1
    23    24    25    1
    24    25    26    2
    25    25    27    1
    26    27    30    1
    27    27    36    1
    28    27    28    1
    29    30    35   ar
    30    30    31   ar
    31    31    32   ar
    32    32    33   ar
    33    33    34   ar
    34    34    35   ar
    35    36    41   ar
    36    36    37   ar
    37    37    38   ar
    38    38    39   ar
    39    39    40   ar
    40    40    41   ar
    41    12    15    1
    42    28    29    1
    43     6     8    1
    44     7     9    1
#	Name:			ZINC17302737
#	Creating user name:	trannguyen
#	Creation time:		Thu Dec  1 16:45:04 2022


#	Modifying user name:	trannguyen
#	Modification time:	Thu Dec  1 16:45:04 2022

@<TRIPOS>MOLECULE
ZINC17302737
 16 18 0 0 0
SMALL
GASTEIGER

@<TRIPOS>ATOM
      1 C           2.5463   67.5555   68.7750 C.3     1  UNL1        0.0298
      2 C           3.4144   66.3011   68.6203 C.3     1  UNL1        0.0985
      3 C           3.4313   65.6788   67.1995 C.3     1  UNL1        0.0299
      4 C           4.7511   64.8655   67.1953 C.3     1  UNL1        0.0322
      5 C           5.3410   65.1517   68.6007 C.3     1  UNL1        0.1210
      6 O           4.8590   66.5285   68.8182 O.3     1  UNL1       -0.3606
      7 C           4.5050   64.3961   69.6620 C.3     1  UNL1        0.0904
      8 C           3.1588   65.1832   69.6597 C.3     1  UNL1        0.0882
      9 C           2.1045   64.1787   69.1893 C.3     1  UNL1        0.1112
     10 N           2.6868   62.8349   69.4350 N.4     1  UNL1        0.3025
     11 C           4.1477   62.9769   69.2146 C.3     1  UNL1        0.1113
     12 C           2.1229   61.8578   68.4905 C.3     1  UNL1        0.1705
     13 C           2.4191   62.4095   70.8176 C.3     1  UNL1        0.1252
     14 C           1.3125   61.3529   70.8209 C.3     1  UNL1        0.1661
     15 C           0.1419   61.8707   71.5477 C.1     1  UNL1        0.0795
     16 N          -0.7615   62.2704   72.1086 N.1     1  UNL1       -0.1957
@<TRIPOS>UNITY_ATOM_ATTR
10 1
charge 1
@<TRIPOS>BOND
     1     1     2    1
     2     2     6    1
     3     2     8    1
     4     2     3    1
     5     3     4    1
     6     4     5    1
     7     5     6    1
     8     5     7    1
     9     7    11    1
    10     7     8    1
    11     8     9    1
    12     9    10    1
    13    10    11    1
    14    10    12    1
    15    10    13    1
    16    13    14    1
    17    14    15    1
    18    15    16    3
#	Name:			ZINC17426357
#	Creating user name:	trannguyen
#	Creation time:		Thu Dec  1 16:45:04 2022


#	Modifying user name:	trannguyen
#	Modification time:	Thu Dec  1 16:45:04 2022

@<TRIPOS>MOLECULE
ZINC17426357
 40 43 0 0 0
SMALL
GASTEIGER

@<TRIPOS>ATOM
      1 C           0.4820   60.2025   72.6179 C.ar    1  UNL1        0.0683
      2 C           0.8190   61.1104   71.6326 C.ar    1  UNL1        0.0498
      3 C          -0.1019   62.0907   71.2525 C.ar    1  UNL1        0.1284
      4 C          -1.6819   61.3268   72.7711 C.ar    1  UNL1        0.1826
      5 C          -0.8036   60.3056   73.2108 C.ar    1  UNL1        0.1301
      6 N          -1.1856   59.4577   74.1656 N.ar    1  UNL1       -0.2395
      7 C          -2.3854   59.5750   74.7074 C.ar    1  UNL1        0.0990
      8 C          -3.2683   60.5897   74.2680 C.ar    1  UNL1        0.1005
      9 N          -2.8971   61.4341   73.3214 N.ar    1  UNL1       -0.2237
     10 N           0.2456   62.9970   70.2630 N.pl3   1  UNL1       -0.3425
     11 N          -1.3444   62.2320   71.7878 N.ar    1  UNL1       -0.2107
     12 H           1.1318   62.9454   69.8374 H       1  UNL1        0.1437
     13 H          -0.3939   63.6923   69.9857 H       1  UNL1        0.1437
     14 C          -4.6132   60.7100   74.8764 C.ar    1  UNL1        0.0192
     15 C          -5.6461   59.8685   74.4633 C.ar    1  UNL1        0.0024
     16 C          -6.8986   59.9892   75.0286 C.ar    1  UNL1        0.0114
     17 C          -7.1309   60.9427   76.0056 C.ar    1  UNL1        0.0577
     18 C          -6.1090   61.7803   76.4198 C.ar    1  UNL1        0.0114
     19 C          -4.8530   61.6689   75.8606 C.ar    1  UNL1        0.0024
     20 CL         -8.7094   61.0889   76.7133 Cl      1  UNL1       -0.0822
     21 C          -2.8096   58.6374   75.7730 C.ar    1  UNL1        0.0192
     22 C          -2.6990   59.0054   77.1136 C.ar    1  UNL1        0.0024
     23 C          -3.0996   58.1301   78.1019 C.ar    1  UNL1        0.0114
     24 C          -3.6016   56.8844   77.7649 C.ar    1  UNL1        0.0577
     25 C          -3.7086   56.5119   76.4356 C.ar    1  UNL1        0.0114
     26 C          -3.3155   57.3813   75.4393 C.ar    1  UNL1        0.0024
     27 CL         -4.0981   55.7854   79.0138 Cl      1  UNL1       -0.0822
     28 N           1.3745   59.2183   73.0165 N.pl3   1  UNL1       -0.3327
     29 H           1.9012   59.3357   73.8399 H       1  UNL1        0.1468
     30 C           1.5333   58.0043   72.2121 C.3     1  UNL1        0.0693
     31 C           2.3486   58.3263   70.9581 C.3     1  UNL1        0.0212
     32 C           2.2618   56.9394   73.0344 C.3     1  UNL1        0.0256
     33 C           2.6937   57.5372   74.3750 C.3     1  UNL1        0.0626
     34 C           1.9613   56.8219   75.5120 C.3     1  UNL1        0.1053
     35 N           1.0491   57.7834   76.1664 N.4     1  UNL1        0.2758
     36 H           0.3484   58.0879   75.4906 H       1  UNL1        0.2067
     37 C          -0.0553   55.7253   76.8936 C.3     1  UNL1        0.0670
     38 C           0.3671   57.1366   77.3070 C.3     1  UNL1        0.1055
     39 C           1.8085   58.9619   76.6342 C.3     1  UNL1        0.1055
     40 C           0.8270   60.1075   76.8895 C.3     1  UNL1        0.0670
@<TRIPOS>UNITY_ATOM_ATTR
35 1
charge 1
@<TRIPOS>BOND
     1    37    38    1
     2    38    35    1
     3    39    40    1
     4    39    35    1
     5    34    33    1
     6    34    35    1
     7    33    32    1
     8    32    30    1
     9    30    31    1
    10    30    28    1
    11    28     1    1
    12     1     5   ar
    13     1     2   ar
    14     2     3   ar
    15     3    10    1
    16     3    11   ar
    17     4     9   ar
    18     4     5   ar
    19     4    11   ar
    20     5     6   ar
    21     6     7   ar
    22     7     8   ar
    23     7    21    1
    24     8     9   ar
    25     8    14    1
    26    14    19   ar
    27    14    15   ar
    28    15    16   ar
    29    16    17   ar
    30    17    18   ar
    31    17    20    1
    32    18    19   ar
    33    21    26   ar
    34    21    22   ar
    35    22    23   ar
    36    23    24   ar
    37    24    25   ar
    38    24    27    1
    39    25    26   ar
    40    28    29    1
    41    10    12    1
    42    10    13    1
    43    35    36    1
#	Name:			ZINC18057077
#	Creating user name:	trannguyen
#	Creation time:		Thu Dec  1 16:45:04 2022


#	Modifying user name:	trannguyen
#	Modification time:	Thu Dec  1 16:45:04 2022

@<TRIPOS>MOLECULE
ZINC18057077
 36 40 0 0 0
SMALL
GASTEIGER

@<TRIPOS>ATOM
      1 C          -0.7064   59.8785   74.5337 C.ar    1  UNL1        0.1320
      2 C          -2.0991   60.1365   74.6590 C.ar    1  UNL1        0.0558
      3 C          -3.0272   59.7345   75.7102 C.ar    1  UNL1        0.0113
      4 C          -4.3270   60.0991   75.6067 C.ar    1  UNL1        0.0370
      5 S          -4.3806   61.0214   74.0822 S.2     1  UNL1       -0.0674
      6 C          -2.6747   60.8919   73.6154 C.ar    1  UNL1        0.1150
      7 N          -1.9550   61.3222   72.5992 N.ar    1  UNL1       -0.2199
      8 C          -0.6579   61.0515   72.5341 C.ar    1  UNL1        0.1656
      9 N          -0.0533   60.3448   73.4838 N.ar    1  UNL1       -0.2120
     10 C           0.1320   61.5468   71.3812 C.ar    1  UNL1        0.0550
     11 C           1.2874   60.8747   70.9703 C.ar    1  UNL1        0.0062
     12 C           1.9859   61.3740   69.8849 C.ar    1  UNL1        0.0208
     13 C           1.5297   62.5176   69.2545 C.ar    1  UNL1        0.0989
     14 N           0.4391   63.1333   69.6682 N.ar    1  UNL1       -0.2422
     15 C          -0.2617   62.6927   70.6930 C.ar    1  UNL1        0.1019
     16 C          -2.5569   58.9362   76.8675 C.ar    1  UNL1        0.0039
     17 C          -2.2154   59.5708   78.0610 C.ar    1  UNL1        0.0033
     18 C          -1.7732   58.8271   79.1363 C.ar    1  UNL1        0.0400
     19 C          -1.6775   57.4477   79.0363 C.ar    1  UNL1        0.1724
     20 C          -2.0171   56.8082   77.8470 C.ar    1  UNL1        0.1724
     21 C          -2.4560   57.5495   76.7644 C.ar    1  UNL1        0.0401
     22 O          -1.9180   55.4554   77.7497 O.3     1  UNL1       -0.4684
     23 C          -1.0257   54.9399   76.7597 C.3     1  UNL1        0.2526
     24 O          -1.2461   56.7180   80.1001 O.3     1  UNL1       -0.4684
     25 C           0.1425   56.8049   80.4260 C.3     1  UNL1        0.2526
     26 N          -0.0416   59.1467   75.5016 N.pl3   1  UNL1       -0.3192
     27 H          -0.4175   58.2937   75.8184 H       1  UNL1        0.1481
     28 C           2.2531   61.1283   77.7748 C.3     1  UNL1        0.1070
     29 C           0.9320   60.6612   77.1595 C.3     1  UNL1        0.0806
     30 C           1.2215   59.6411   76.0549 C.3     1  UNL1        0.0822
     31 C           2.0146   58.4714   76.6445 C.3     1  UNL1        0.0806
     32 C           3.3035   59.0023   77.2761 C.3     1  UNL1        0.1070
     33 N           2.9553   59.9602   78.3471 N.4     1  UNL1        0.2759
     34 H           2.3381   59.4986   79.0153 H       1  UNL1        0.2067
     35 C           4.2955   61.9228   78.9450 C.3     1  UNL1        0.0670
     36 C           4.1795   60.4006   79.0474 C.3     1  UNL1        0.1055
@<TRIPOS>UNITY_ATOM_ATTR
33 1
charge 1
@<TRIPOS>BOND
     1    35    36    1
     2    36    33    1
     3    28    29    1
     4    28    33    1
     5    29    30    1
     6    30    31    1
     7    30    26    1
     8    31    32    1
     9    32    33    1
    10    26     1    1
    11     1     9   ar
    12     1     2   ar
    13     2     6   ar
    14     2     3   ar
    15     3     4   ar
    16     3    16    1
    17     4     5   ar
    18     5     6   ar
    19     6     7   ar
    20     7     8   ar
    21     8     9   ar
    22     8    10    1
    23    10    15   ar
    24    10    11   ar
    25    11    12   ar
    26    12    13   ar
    27    13    14   ar
    28    14    15   ar
    29    16    21   ar
    30    16    17   ar
    31    17    18   ar
    32    18    19   ar
    33    19    20   ar
    34    19    24    1
    35    20    21   ar
    36    20    22    1
    37    22    23    1
    38    24    25    1
    39    26    27    1
    40    33    34    1
#	Name:			ZINC18177627
#	Creating user name:	trannguyen
#	Creation time:		Thu Dec  1 16:45:04 2022


#	Modifying user name:	trannguyen
#	Modification time:	Thu Dec  1 16:45:04 2022

@<TRIPOS>MOLECULE
ZINC18177627
 25 27 0 0 0
SMALL
GASTEIGER

@<TRIPOS>ATOM
      1 C          -1.5878   60.2222   75.2123 C.ar    1  UNL1        0.1607
      2 C          -0.3575   60.1566   74.5595 C.ar    1  UNL1        0.1043
      3 C          -0.6423   60.4080   73.1358 C.ar    1  UNL1        0.0302
      4 C          -1.9816   60.6010   73.0371 C.ar    1  UNL1        0.0821
      5 N          -2.5478   60.4848   74.2756 N.ar    1  UNL1       -0.2897
      6 C          -3.9158   60.6189   74.5467 C.ar    1  UNL1        0.0654
      7 C          -4.7341   59.4973   74.5665 C.ar    1  UNL1        0.0184
      8 C          -6.0812   59.6315   74.8397 C.ar    1  UNL1        0.0129
      9 C          -6.6179   60.8838   75.0817 C.ar    1  UNL1        0.0578
     10 C          -5.8055   62.0038   75.0574 C.ar    1  UNL1        0.0129
     11 C          -4.4567   61.8743   74.7904 C.ar    1  UNL1        0.0184
     12 CL         -8.3131   61.0500   75.4171 Cl      1  UNL1       -0.0822
     13 C           0.3422   60.4429   72.0279 C.ar    1  UNL1        0.0022
     14 C           0.5337   61.6156   71.2986 C.ar    1  UNL1        0.0001
     15 C           1.4551   61.6436   70.2718 C.ar    1  UNL1        0.0000
     16 C           2.1800   60.5079   69.9582 C.ar    1  UNL1        0.0000
     17 C           1.9905   59.3399   70.6749 C.ar    1  UNL1        0.0000
     18 C           1.0759   59.3016   71.7075 C.ar    1  UNL1        0.0001
     19 C          -1.9753   58.8519   77.0264 C.2     1  UNL1        0.2814
     20 N          -1.7964   60.0496   76.5445 N.2     1  UNL1       -0.1892
     21 O          -1.9589   57.7849   76.2031 O.2     1  UNL1       -0.4571
     22 C          -3.5849   56.0986   75.5378 C.3     1  UNL1        0.0512
     23 C          -2.6609   56.5956   76.6514 C.3     1  UNL1        0.2074
     24 C           0.9205   59.8975   75.1512 C.1     1  UNL1        0.1035
     25 N           1.9343   59.6918   75.6206 N.1     1  UNL1       -0.1907
@<TRIPOS>BOND
     1    22    23    1
     2    23    21    1
     3    21    19    1
     4    19    20    2
     5    20     1    1
     6     1     5   ar
     7     1     2   ar
     8     2     3   ar
     9     2    24    1
    10     3     4   ar
    11     3    13    1
    12     4     5   ar
    13     5     6    1
    14     6    11   ar
    15     6     7   ar
    16     7     8   ar
    17     8     9   ar
    18     9    10   ar
    19     9    12    1
    20    10    11   ar
    21    13    18   ar
    22    13    14   ar
    23    14    15   ar
    24    15    16   ar
    25    16    17   ar
    26    17    18   ar
    27    24    25    3
#	Name:			ZINC18320600
#	Creating user name:	trannguyen
#	Creation time:		Thu Dec  1 16:45:04 2022


#	Modifying user name:	trannguyen
#	Modification time:	Thu Dec  1 16:45:04 2022

@<TRIPOS>MOLECULE
ZINC18320600
 33 37 0 0 0
SMALL
GASTEIGER

@<TRIPOS>ATOM
      1 C           5.4452   63.5510   69.8963 C.3     1  UNL1        0.0201
      2 C           3.9907   63.9570   69.6505 C.3     1  UNL1        0.1103
      3 C           3.9502   65.1407   68.7186 C.ar    1  UNL1        0.1299
      4 N           4.4637   65.0227   67.4673 N.ar    1  UNL1       -0.3091
      5 C           4.4421   66.0538   66.6027 C.ar    1  UNL1        0.2605
      6 O           4.9023   65.9302   65.4806 O.2     1  UNL1       -0.2671
      7 C           3.8702   67.2974   67.0202 C.ar    1  UNL1        0.0832
      8 C           3.7306   68.5449   66.2765 C.ar    1  UNL1        0.0476
      9 C           3.1465   69.6060   66.8890 C.ar    1  UNL1        0.0401
     10 S           2.7501   68.9799   68.5100 S.2     1  UNL1       -0.0672
     11 C           3.3699   67.3271   68.3320 C.ar    1  UNL1        0.1167
     12 N           3.4266   66.2641   69.1303 N.ar    1  UNL1       -0.2250
     13 H           4.8596   64.1660   67.1869 H       1  UNL1        0.1701
     14 C           4.2155   68.6510   64.8855 C.ar    1  UNL1        0.1462
     15 C           5.3765   69.2372   64.4875 C.ar    1  UNL1        0.0407
     16 C           5.4370   69.1071   63.0846 C.ar    1  UNL1        0.0438
     17 C           4.3185   68.4636   62.6995 C.ar    1  UNL1        0.1796
     18 O           3.5823   68.1892   63.7903 O.2     1  UNL1       -0.4504
     19 S           3.0933   62.5685   68.9039 S.3     1  UNL1       -0.0799
     20 C           1.5704   62.5201   69.7887 C.ar    1  UNL1        0.1610
     21 N           0.5308   63.3283   69.7086 N.ar    1  UNL1       -0.1331
     22 N          -0.5733   63.1035   70.4978 N.ar    1  UNL1       -0.1252
     23 C          -0.5830   62.0879   71.3388 C.ar    1  UNL1        0.1831
     24 S           1.0241   61.3678   71.0396 S.2     1  UNL1       -0.0245
     25 N          -1.5779   61.6853   72.2220 N.pl3   1  UNL1       -0.3078
     26 H          -2.4452   62.1510   72.2319 H       1  UNL1        0.1490
     27 C          -1.3358   60.5680   73.1383 C.3     1  UNL1        0.1158
     28 C          -2.6240   60.1929   73.8245 C.ar    1  UNL1       -0.0026
     29 C          -2.7760   58.9307   74.3671 C.ar    1  UNL1       -0.0026
     30 C          -3.9557   58.5884   75.0012 C.ar    1  UNL1       -0.0003
     31 C          -4.9874   59.5047   75.0831 C.ar    1  UNL1       -0.0000
     32 C          -4.8375   60.7652   74.5355 C.ar    1  UNL1       -0.0003
     33 C          -3.6557   61.1093   73.9065 C.ar    1  UNL1       -0.0026
@<TRIPOS>BOND
     1     1     2    1
     2     2     3    1
     3     2    19    1
     4     3    12   ar
     5     3     4   ar
     6     4     5   ar
     7     5     6    2
     8     5     7   ar
     9     7    11   ar
    10     7     8   ar
    11     8     9   ar
    12     8    14    1
    13     9    10   ar
    14    10    11   ar
    15    11    12   ar
    16    14    18   ar
    17    14    15   ar
    18    15    16   ar
    19    16    17   ar
    20    17    18   ar
    21    19    20    1
    22    20    24   ar
    23    20    21   ar
    24    21    22   ar
    25    22    23   ar
    26    23    24   ar
    27    23    25    1
    28    25    27    1
    29    27    28    1
    30    28    33   ar
    31    28    29   ar
    32    29    30   ar
    33    30    31   ar
    34    31    32   ar
    35    32    33   ar
    36     4    13    1
    37    25    26    1
#	Name:			ZINC18974028
#	Creating user name:	trannguyen
#	Creation time:		Thu Dec  1 16:45:04 2022


#	Modifying user name:	trannguyen
#	Modification time:	Thu Dec  1 16:45:04 2022

@<TRIPOS>MOLECULE
ZINC18974028
 32 35 0 0 0
SMALL
GASTEIGER

@<TRIPOS>ATOM
      1 C         -10.3026   72.1995   69.2575 C.3     1  UNL1        0.0504
      2 C          -9.7167   73.1746   70.2459 C.ar    1  UNL1        0.0415
      3 C          -9.0866   72.8442   71.3856 C.ar    1  UNL1        0.0171
      4 C          -8.6925   74.1079   72.0231 C.ar    1  UNL1        0.0486
      5 C          -9.1277   75.1112   71.1772 C.ar    1  UNL1        0.0442
      6 N          -9.7363   74.5357   70.1225 N.ar    1  UNL1       -0.3134
      7 C          -8.9519   76.5916   71.3971 C.3     1  UNL1        0.0505
      8 C         -10.3088   75.2343   69.0492 C.ar    1  UNL1        0.0636
      9 C         -11.6610   75.5483   69.0673 C.ar    1  UNL1        0.0206
     10 C         -12.2229   76.2405   68.0130 C.ar    1  UNL1        0.0386
     11 C         -11.4387   76.6126   66.9306 C.ar    1  UNL1        0.1444
     12 C         -10.0885   76.2940   66.9095 C.ar    1  UNL1        0.0386
     13 C          -9.5245   75.6069   67.9658 C.ar    1  UNL1        0.0206
     14 O         -11.9936   77.2892   65.8903 O.3     1  UNL1       -0.4236
     15 C         -11.9411   76.6626   64.6070 C.3     1  UNL1        0.5087
     16 F         -12.6787   75.4744   64.6377 F       1  UNL1       -0.1550
     17 F         -12.4823   77.5229   63.6456 F       1  UNL1       -0.1550
     18 C          -7.9794   74.2712   73.2913 C.2     1  UNL1        0.1841
     19 O          -6.7919   74.5215   73.2920 O.2     1  UNL1       -0.2904
     20 C          -8.7199   74.1283   74.5961 C.3     1  UNL1        0.1164
     21 C         -10.1144   74.7430   74.4610 C.3     1  UNL1        0.0204
     22 S          -7.8076   74.9838   75.9045 S.3     1  UNL1       -0.0687
     23 C          -7.4879   73.6322   76.9887 C.ar    1  UNL1        0.1936
     24 N          -7.1333   72.4339   76.6241 N.ar    1  UNL1       -0.1445
     25 N          -6.9776   71.6568   77.7802 N.ar    1  UNL1       -0.2257
     26 C          -7.2550   72.4468   78.8379 C.ar    1  UNL1        0.3454
     27 O          -7.2255   72.1166   80.0103 O.2     1  UNL1       -0.2450
     28 N          -7.5711   73.6677   78.3622 N.ar    1  UNL1       -0.2609
     29 H          -6.7142   70.7087   77.8141 H       1  UNL1        0.1937
     30 C          -7.9405   74.8333   79.1691 C.3     1  UNL1        0.0919
     31 C          -7.0444   76.0699   79.0758 C.3     1  UNL1        0.0247
     32 C          -7.0241   75.2030   80.3372 C.3     1  UNL1        0.0247
@<TRIPOS>BOND
     1     1     2    1
     2     2     6   ar
     3     2     3   ar
     4     3     4   ar
     5     4     5   ar
     6     4    18    1
     7     5     6   ar
     8     5     7    1
     9     6     8    1
    10     8    13   ar
    11     8     9   ar
    12     9    10   ar
    13    10    11   ar
    14    11    12   ar
    15    11    14    1
    16    12    13   ar
    17    14    15    1
    18    15    16    1
    19    15    17    1
    20    18    19    2
    21    18    20    1
    22    20    21    1
    23    20    22    1
    24    22    23    1
    25    23    28   ar
    26    23    24   ar
    27    24    25   ar
    28    25    26   ar
    29    26    27    2
    30    26    28   ar
    31    28    30    1
    32    30    32    1
    33    30    31    1
    34    31    32    1
    35    25    29    1
#	Name:			ZINC19167288
#	Creating user name:	trannguyen
#	Creation time:		Thu Dec  1 16:45:04 2022


#	Modifying user name:	trannguyen
#	Modification time:	Thu Dec  1 16:45:04 2022

@<TRIPOS>MOLECULE
ZINC19167288
 12 11 0 0 0
SMALL
GASTEIGER

@<TRIPOS>ATOM
      1 N           2.4333   63.8392   68.7834 N.3     1  UNL1       -0.1921
      2 N           1.7220   63.0084   69.7416 N.3     1  UNL1       -0.2133
      3 C           2.1381   63.3164   71.1163 C.3     1  UNL1        0.1076
      4 C           0.2684   63.1529   69.5866 C.3     1  UNL1        0.1076
      5 C           4.4414   65.1350   69.3175 C.3     1  UNL1        0.0354
      6 C           2.9156   65.0751   69.4140 C.3     1  UNL1        0.1642
      7 C           2.3343   66.2377   68.7230 C.1     1  UNL1        0.0899
      8 N           1.8856   67.1348   68.1898 N.1     1  UNL1       -0.1944
      9 C           3.5397   63.0981   68.1632 C.3     1  UNL1        0.1642
     10 C           3.4488   63.2252   66.6411 C.3     1  UNL1        0.0354
     11 C           3.4532   61.6787   68.5430 C.1     1  UNL1        0.0899
     12 N           3.3864   60.5831   68.8363 N.1     1  UNL1       -0.1944
@<TRIPOS>BOND
     1     5     6    1
     2     6     7    1
     3     6     1    1
     4     7     8    3
     5     1     9    1
     6     1     2    1
     7     9    10    1
     8     9    11    1
     9    11    12    3
    10     2     3    1
    11     2     4    1
#	Name:			ZINC19200219
#	Creating user name:	trannguyen
#	Creation time:		Thu Dec  1 16:45:04 2022


#	Modifying user name:	trannguyen
#	Modification time:	Thu Dec  1 16:45:04 2022

@<TRIPOS>MOLECULE
ZINC19200219
 22 25 0 0 0
SMALL
GASTEIGER

@<TRIPOS>ATOM
      1 C           2.9903   66.1535   68.4842 C.ar    1  UNL1        0.1032
      2 C           3.5238   66.8404   67.3849 C.ar    1  UNL1        0.0649
      3 C           2.6915   67.8717   67.0931 C.ar    1  UNL1        0.0605
      4 N           1.6702   67.8430   67.9634 N.ar    1  UNL1       -0.2797
      5 N           1.8704   66.7596   68.8327 N.ar    1  UNL1       -0.1731
      6 C           2.9458   68.8432   65.9664 C.3     1  UNL1        0.1057
      7 C           4.4130   68.6949   65.5397 C.3     1  UNL1        0.1090
      8 N           4.7267   67.2740   65.3354 N.4     1  UNL1        0.2581
      9 C           4.7863   66.5462   66.6147 C.3     1  UNL1        0.1325
     10 H           0.9131   68.4719   67.9878 H       1  UNL1        0.1886
     11 H           5.6301   67.1977   64.8680 H       1  UNL1        0.2039
     12 H           3.9880   66.8612   64.7659 H       1  UNL1        0.2039
     13 C           1.1573   61.8174   70.4786 C.ar    1  UNL1        0.0000
     14 C           0.5828   62.9293   69.8662 C.ar    1  UNL1        0.0000
     15 C           1.3535   63.9615   69.4238 C.ar    1  UNL1        0.0000
     16 C           2.7451   63.9105   69.5911 C.ar    1  UNL1        0.0015
     17 C           3.3312   62.7782   70.2079 C.ar    1  UNL1        0.0000
     18 C           2.5045   61.7315   70.6520 C.ar    1  UNL1        0.0000
     19 C           4.7260   62.7227   70.3703 C.ar    1  UNL1        0.0000
     20 C           5.5056   63.7495   69.9305 C.ar    1  UNL1        0.0000
     21 C           4.9466   64.8650   69.3171 C.ar    1  UNL1        0.0015
     22 C           3.5780   64.9608   69.1380 C.ar    1  UNL1        0.0193
@<TRIPOS>UNITY_ATOM_ATTR
8 1
charge 1
@<TRIPOS>BOND
     1    13    18   ar
     2    13    14   ar
     3    14    15   ar
     4    15    16   ar
     5    16    22   ar
     6    16    17   ar
     7    17    18   ar
     8    17    19   ar
     9    19    20   ar
    10    20    21   ar
    11    21    22   ar
    12    22     1    1
    13     1     5   ar
    14     1     2   ar
    15     2     9    1
    16     2     3   ar
    17     3     4   ar
    18     3     6    1
    19     4     5   ar
    20     6     7    1
    21     7     8    1
    22     8     9    1
    23     4    10    1
    24     8    11    1
    25     8    12    1
#	Name:			ZINC19208308
#	Creating user name:	trannguyen
#	Creation time:		Thu Dec  1 16:45:04 2022


#	Modifying user name:	trannguyen
#	Modification time:	Thu Dec  1 16:45:04 2022

@<TRIPOS>MOLECULE
ZINC19208308
 12 14 0 0 0
SMALL
GASTEIGER

@<TRIPOS>ATOM
      1 C           1.7044   58.4522   71.4538 C.3     1  UNL1        0.2618
      2 N           2.4981   59.3386   70.5989 N.2     1  UNL1       -0.2598
      3 C           2.1636   60.6101   70.4750 C.2     1  UNL1        0.2611
      4 C           1.0820   61.2011   71.1098 C.3     1  UNL1        0.1923
      5 C          -0.1752   61.0839   71.6926 C.2     1  UNL1        0.1292
      6 N          -0.8198   62.2228   71.6173 N.2     1  UNL1       -0.0854
      7 O          -0.0827   63.1589   70.8242 O.2     1  UNL1       -0.3760
      8 C           1.2545   62.7034   70.9325 C.3     1  UNL1        0.2595
      9 C           2.1806   62.8501   69.7514 C.3     1  UNL1        0.2501
     10 N           2.8516   61.5324   69.6881 N.pl3   1  UNL1       -0.1901
     11 C           2.1052   62.0229   68.4835 C.3     1  UNL1        0.2528
     12 H           3.2809   58.9863   70.1169 H       1  UNL1        0.3046
@<TRIPOS>UNITY_ATOM_ATTR
2 1
charge 1
@<TRIPOS>BOND
     1     1     2    1
     2     2     3    2
     3     3    10    1
     4     3     4    1
     5     4     8    1
     6     4     5    1
     7     5     6    2
     8     6     7    1
     9     7     8    1
    10     8     9    1
    11     9    11    1
    12     9    10    1
    13    10    11    1
    14     2    12    1
#	Name:			ZINC19318817
#	Creating user name:	trannguyen
#	Creation time:		Thu Dec  1 16:45:04 2022


#	Modifying user name:	trannguyen
#	Modification time:	Thu Dec  1 16:45:04 2022

@<TRIPOS>MOLECULE
ZINC19318817
 13 14 0 0 0
SMALL
GASTEIGER

@<TRIPOS>ATOM
      1 C          -2.8754   59.1203   75.3834 C.3     1  UNL1        0.0611
      2 C          -1.9487   60.2423   74.9108 C.3     1  UNL1        0.0615
      3 C          -2.6185   61.0301   73.7696 C.3     1  UNL1        0.0611
      4 C          -1.6587   60.8911   72.5656 C.3     1  UNL1        0.0611
      5 C          -0.3029   60.5531   73.2351 C.3     1  UNL1        0.0615
      6 N          -0.6991   59.6682   74.3666 N.4     1  UNL1        0.3094
      7 C           0.6120   59.8119   72.2581 C.3     1  UNL1        0.0611
      8 H          -0.8363   58.7062   74.0563 H       1  UNL1        0.2127
      9 C           0.3510   59.6249   75.3928 C.3     1  UNL1        0.2224
     10 N           0.7554   58.2312   75.6213 N.4     1  UNL1        0.3266
     11 C           1.6827   58.1314   76.7562 C.3     1  UNL1        0.1740
     12 C           2.1784   58.0386   75.3118 C.3     1  UNL1        0.1740
     13 H          -0.1023   57.7459   75.3581 H       1  UNL1        0.2138
@<TRIPOS>UNITY_ATOM_ATTR
6 1
charge 1
10 1
charge 1
@<TRIPOS>BOND
     1     1     2    1
     2     2     6    1
     3     2     3    1
     4     3     4    1
     5     4     5    1
     6     5     6    1
     7     5     7    1
     8     6     9    1
     9     9    10    1
    10    10    12    1
    11    10    11    1
    12    11    12    1
    13     6     8    1
    14    10    13    1
#	Name:			ZINC19319451
#	Creating user name:	trannguyen
#	Creation time:		Thu Dec  1 16:45:04 2022


#	Modifying user name:	trannguyen
#	Modification time:	Thu Dec  1 16:45:04 2022

@<TRIPOS>MOLECULE
ZINC19319451
 15 17 0 0 0
SMALL
GASTEIGER

@<TRIPOS>ATOM
      1 N           3.3233   63.6796   68.9528 N.4     1  UNL1        0.4160
      2 C           2.6290   62.7604   68.0403 C.3     1  UNL1        0.2539
      3 N           1.7322   61.8904   68.8174 N.4     1  UNL1        0.3973
      4 C           2.5113   61.1009   69.7886 C.3     1  UNL1        0.2501
      5 N           3.2040   62.0353   70.6944 N.4     1  UNL1        0.3973
      6 C           4.1082   62.9060   69.9248 C.3     1  UNL1        0.2539
      7 C           2.2149   62.8519   71.4213 C.3     1  UNL1        0.2501
      8 N           1.4386   63.6248   70.4347 N.4     1  UNL1        0.3973
      9 C           0.7291   62.7056   69.5264 C.3     1  UNL1        0.2501
     10 C           2.3351   64.5025   69.6640 C.3     1  UNL1        0.2539
     11 H           1.2544   61.2547   68.1786 H       1  UNL1        0.2277
     12 H           3.7540   61.5012   71.3672 H       1  UNL1        0.2277
     13 H           0.7552   64.2011   70.9260 H       1  UNL1        0.2277
     14 C           5.2594   65.1701   69.1178 C.3     1  UNL1        0.0679
     15 C           4.2205   64.5501   68.1812 C.3     1  UNL1        0.1293
@<TRIPOS>UNITY_ATOM_ATTR
1 1
charge 1
3 1
charge 1
5 1
charge 1
8 1
charge 1
@<TRIPOS>BOND
     1    14    15    1
     2    15     1    1
     3     1     6    1
     4     1    10    1
     5     1     2    1
     6     2     3    1
     7     3     9    1
     8     3     4    1
     9     4     5    1
    10     5     6    1
    11     5     7    1
    12     7     8    1
    13     8     9    1
    14     8    10    1
    15     3    11    1
    16     5    12    1
    17     8    13    1
#	Name:			ZINC19384557
#	Creating user name:	trannguyen
#	Creation time:		Thu Dec  1 16:45:04 2022


#	Modifying user name:	trannguyen
#	Modification time:	Thu Dec  1 16:45:04 2022

@<TRIPOS>MOLECULE
ZINC19384557
 22 23 0 0 0
SMALL
GASTEIGER

@<TRIPOS>ATOM
      1 C           1.5728   62.3293   69.8150 C.ar    1  UNL1        0.0486
      2 C           1.0371   61.7682   70.9590 C.ar    1  UNL1        0.0014
      3 C           1.2690   60.4371   71.2504 C.ar    1  UNL1        0.0013
      4 C           2.0365   59.6652   70.3978 C.ar    1  UNL1        0.0347
      5 C           2.5734   60.2241   69.2538 C.ar    1  UNL1        0.0308
      6 C           2.3374   61.5562   68.9582 C.ar    1  UNL1        0.1395
      7 F           2.8569   62.1022   67.8369 F       1  UNL1       -0.2044
      8 C           2.2880   58.2139   70.7166 C.3     1  UNL1        0.1269
      9 N           3.6139   57.8255   70.2174 N.4     1  UNL1        0.2358
     10 H           3.6506   57.9630   69.2074 H       1  UNL1        0.2008
     11 H           3.7841   56.8432   70.4331 H       1  UNL1        0.2008
     12 H           4.3276   58.4005   70.6650 H       1  UNL1        0.2008
     13 C           1.3194   63.7805   69.4974 C.3     1  UNL1        0.2342
     14 O           2.3317   64.5851   70.1057 O.3     1  UNL1       -0.4709
     15 C           3.1094   68.2603   66.9895 C.3     1  UNL1        0.0311
     16 C           3.5903   67.0436   67.7376 C.ar    1  UNL1       -0.0189
     17 C           4.8892   66.5991   67.5717 C.ar    1  UNL1       -0.0044
     18 C           5.3334   65.4834   68.2565 C.ar    1  UNL1       -0.0016
     19 C           4.4797   64.8092   69.1084 C.ar    1  UNL1        0.0121
     20 C           3.1748   65.2499   69.2726 C.ar    1  UNL1        0.1347
     21 C           2.7333   66.3736   68.5888 C.ar    1  UNL1        0.0323
     22 C           4.9643   63.5923   69.8539 C.3     1  UNL1        0.0342
@<TRIPOS>UNITY_ATOM_ATTR
9 1
charge 1
@<TRIPOS>BOND
     1    15    16    1
     2    16    21   ar
     3    16    17   ar
     4    17    18   ar
     5    18    19   ar
     6    19    20   ar
     7    19    22    1
     8    20    21   ar
     9    20    14    1
    10    14    13    1
    11    13     1    1
    12     1     6   ar
    13     1     2   ar
    14     2     3   ar
    15     3     4   ar
    16     4     5   ar
    17     4     8    1
    18     5     6   ar
    19     6     7    1
    20     8     9    1
    21     9    10    1
    22     9    11    1
    23     9    12    1
#	Name:			ZINC19399910
#	Creating user name:	trannguyen
#	Creation time:		Thu Dec  1 16:45:04 2022


#	Modifying user name:	trannguyen
#	Modification time:	Thu Dec  1 16:45:04 2022

@<TRIPOS>MOLECULE
ZINC19399910
 17 18 0 0 0
SMALL
GASTEIGER

@<TRIPOS>ATOM
      1 C           4.6537   65.3889   68.1358 C.ar    1  UNL1        0.1849
      2 N           3.7972   64.3158   68.2177 N.ar    1  UNL1       -0.1936
      3 C           4.2265   63.5822   69.2860 C.ar    1  UNL1        0.2088
      4 N           5.2708   64.2002   69.7885 N.ar    1  UNL1       -0.2466
      5 N           5.5259   65.2604   69.1084 N.ar    1  UNL1       -0.1509
      6 N           3.6656   62.4057   69.7529 N.pl3   1  UNL1       -0.3278
      7 H           5.7835   63.8957   70.5719 H       1  UNL1        0.1918
      8 H           2.8786   62.0228   69.3020 H       1  UNL1        0.1451
      9 H           4.0536   61.9521   70.5357 H       1  UNL1        0.1451
     10 C           5.3957   67.4790   65.1052 C.ar    1  UNL1        0.0298
     11 C           5.4476   66.4573   66.0308 C.ar    1  UNL1        0.0063
     12 C           4.6019   66.4808   67.1406 C.ar    1  UNL1        0.0483
     13 C           3.7068   67.5401   67.3077 C.ar    1  UNL1        0.0629
     14 C           3.6635   68.5569   66.3753 C.ar    1  UNL1        0.0411
     15 C           4.5061   68.5277   65.2754 C.ar    1  UNL1        0.1410
     16 F           4.4594   69.5251   64.3654 F       1  UNL1       -0.2041
     17 CL          2.6560   67.5814   68.6890 Cl      1  UNL1       -0.0821
@<TRIPOS>BOND
     1    10    15   ar
     2    10    11   ar
     3    11    12   ar
     4    12    13   ar
     5    12     1    1
     6    13    14   ar
     7    13    17    1
     8    14    15   ar
     9    15    16    1
    10     1     2   ar
    11     1     5   ar
    12     2     3   ar
    13     3     6    1
    14     3     4   ar
    15     4     5   ar
    16     4     7    1
    17     6     8    1
    18     6     9    1
#	Name:			ZINC19414595
#	Creating user name:	trannguyen
#	Creation time:		Thu Dec  1 16:45:04 2022


#	Modifying user name:	trannguyen
#	Modification time:	Thu Dec  1 16:45:04 2022

@<TRIPOS>MOLECULE
ZINC19414595
 8 8 0 0 0
SMALL
GASTEIGER

@<TRIPOS>ATOM
      1 C           2.9729   68.4432   61.8612 C.ar    1  UNL1        0.2210
      2 N           4.2710   68.7195   61.7432 N.ar    1  UNL1       -0.2007
      3 C           4.7976   68.8916   62.9285 C.ar    1  UNL1        0.1972
      4 N           3.8274   68.7253   63.8442 N.ar    1  UNL1       -0.2292
      5 N           2.6552   68.4304   63.1291 N.ar    1  UNL1       -0.1451
      6 C           3.9668   68.8255   65.2990 C.3     1  UNL1        0.1415
      7 C           4.7684   67.6301   65.8181 C.3     1  UNL1        0.0940
      8 BR          4.0126   67.0281   67.5303 Br      1  UNL1       -0.0786
@<TRIPOS>BOND
     1     1     5   ar
     2     1     2   ar
     3     2     3   ar
     4     3     4   ar
     5     4     5   ar
     6     4     6    1
     7     6     7    1
     8     7     8    1
#	Name:			ZINC19735051
#	Creating user name:	trannguyen
#	Creation time:		Thu Dec  1 16:45:04 2022


#	Modifying user name:	trannguyen
#	Modification time:	Thu Dec  1 16:45:04 2022

@<TRIPOS>MOLECULE
ZINC19735051
 19 20 0 0 0
SMALL
GASTEIGER

@<TRIPOS>ATOM
      1 C           1.2813   62.1281   70.6604 C.ar    1  UNL1        0.1704
      2 N           1.4164   63.4167   70.7794 N.ar    1  UNL1       -0.2255
      3 C           2.2322   63.8826   69.7989 C.ar    1  UNL1        0.0985
      4 C           2.7056   65.1535   69.4621 C.ar    1  UNL1        0.0206
      5 C           3.5365   65.3079   68.3889 C.ar    1  UNL1        0.0016
      6 C           3.9176   64.2135   67.6254 C.ar    1  UNL1        0.0016
      7 C           3.4586   62.9512   67.9357 C.ar    1  UNL1        0.0188
      8 C           2.6180   62.7742   69.0264 C.ar    1  UNL1        0.0790
      9 N           2.0002   61.6790   69.5964 N.ar    1  UNL1       -0.3062
     10 C           0.4502   61.2596   71.5693 C.3     1  UNL1        0.1070
     11 N           1.0880   61.1821   72.8902 N.4     1  UNL1        0.2336
     12 H           1.1611   62.1185   73.2880 H       1  UNL1        0.2007
     13 H           2.0204   60.7796   72.7945 H       1  UNL1        0.2007
     14 H           0.5255   60.5943   73.5054 H       1  UNL1        0.2007
     15 C          -1.7463   61.0620   72.7435 C.3     1  UNL1        0.0066
     16 C          -0.9483   61.8633   71.7128 C.3     1  UNL1        0.0628
     17 C           2.1008   60.2904   69.1403 C.3     1  UNL1        0.1338
     18 C           2.8692   59.4829   70.1545 C.2     1  UNL1       -0.0017
     19 C           2.3791   58.3524   70.5991 C.2     1  UNL1       -0.0029
@<TRIPOS>UNITY_ATOM_ATTR
11 1
charge 1
@<TRIPOS>BOND
     1    15    16    1
     2    16    10    1
     3    10     1    1
     4    10    11    1
     5     1     9   ar
     6     1     2   ar
     7     2     3   ar
     8     3     8   ar
     9     3     4   ar
    10     4     5   ar
    11     5     6   ar
    12     6     7   ar
    13     7     8   ar
    14     8     9   ar
    15     9    17    1
    16    17    18    1
    17    18    19    2
    18    11    12    1
    19    11    13    1
    20    11    14    1
#	Name:			ZINC19816074
#	Creating user name:	trannguyen
#	Creation time:		Thu Dec  1 16:45:04 2022


#	Modifying user name:	trannguyen
#	Modification time:	Thu Dec  1 16:45:04 2022

@<TRIPOS>MOLECULE
ZINC19816074
 16 19 0 0 0
SMALL
GASTEIGER

@<TRIPOS>ATOM
      1 C          -4.4932   51.1138   76.0110 C.3     1  UNL1        0.0669
      2 C          -3.2407   50.2874   75.6192 C.3     1  UNL1        0.0651
      3 C          -2.0815   51.0818   76.2541 C.3     1  UNL1        0.0968
      4 C          -0.9273   51.1867   75.2519 C.3     1  UNL1        0.2043
      5 C          -1.2385   52.4820   74.4752 C.3     1  UNL1        0.1099
      6 C          -1.6816   53.3731   75.6718 C.3     1  UNL1        0.0821
      7 N          -2.5663   52.4706   76.4597 N.4     1  UNL1        0.2735
      8 C          -3.9469   52.5613   75.9413 C.3     1  UNL1        0.1055
      9 C          -0.4811   53.6697   76.5420 C.2     1  UNL1        0.0279
     10 C           0.5021   52.7707   76.7205 C.2     1  UNL1        0.0005
     11 C           0.3595   51.5000   76.0105 C.2     1  UNL1        0.0256
     12 C           1.1548   50.4467   75.8190 C.2     1  UNL1        0.0811
     13 C           0.5239   49.5410   74.9236 C.2     1  UNL1        0.3415
     14 O           0.9886   48.4708   74.5795 O.2     1  UNL1       -0.2449
     15 O          -0.6688   50.0358   74.5050 O.3     1  UNL1       -0.4425
     16 H          -2.5528   52.7298   77.4461 H       1  UNL1        0.2067
@<TRIPOS>UNITY_ATOM_ATTR
7 1
charge 1
@<TRIPOS>BOND
     1     1     8    1
     2     1     2    1
     3     2     3    1
     4     3     7    1
     5     3     4    1
     6     4    11    1
     7     4    15    1
     8     4     5    1
     9     5     6    1
    10     6     7    1
    11     6     9    1
    12     7     8    1
    13     9    10    2
    14    10    11    1
    15    11    12    2
    16    12    13    1
    17    13    14    2
    18    13    15    1
    19     7    16    1
#	Name:			ZINC19882593
#	Creating user name:	trannguyen
#	Creation time:		Thu Dec  1 16:45:04 2022


#	Modifying user name:	trannguyen
#	Modification time:	Thu Dec  1 16:45:04 2022

@<TRIPOS>MOLECULE
ZINC19882593
 28 31 0 0 0
SMALL
GASTEIGER

@<TRIPOS>ATOM
      1 C           3.9214   64.6439   68.5915 C.3     1  UNL1        0.1187
      2 C           3.5941   63.5093   67.6170 C.3     1  UNL1        0.0855
      3 C           3.5043   62.1906   68.3887 C.3     1  UNL1        0.1077
      4 N           2.4624   62.2932   69.4183 N.4     1  UNL1        0.2797
      5 C           2.7803   63.3449   70.3926 C.3     1  UNL1        0.1077
      6 C           2.8470   64.6981   69.6810 C.3     1  UNL1        0.0855
      7 H           1.5914   62.5517   68.9547 H       1  UNL1        0.2071
      8 C           4.4142   67.4708   66.4345 C.ar    1  UNL1        0.1274
      9 C           4.6981   66.1918   66.7747 C.ar    1  UNL1        0.1155
     10 N           3.9498   65.9176   67.8683 N.ar    1  UNL1       -0.2320
     11 N           3.2698   66.9692   68.1657 N.ar    1  UNL1       -0.0641
     12 N           3.5218   67.9123   67.3279 N.ar    1  UNL1       -0.1307
     13 C           3.8530   68.8431   64.4468 C.3     1  UNL1        0.0384
     14 C           4.9904   68.2452   65.2772 C.3     1  UNL1        0.1536
     15 O           5.7687   67.3698   64.4587 O.3     1  UNL1       -0.3784
     16 H           5.2048   66.6561   64.1214 H       1  UNL1        0.2109
     17 C           2.2539   61.0018   70.0868 C.3     1  UNL1        0.1393
     18 C           1.0349   61.0839   70.9690 C.ar    1  UNL1        0.0621
     19 C           0.0255   61.9916   70.9478 C.ar    1  UNL1        0.0084
     20 C          -1.0043   61.8716   71.8553 C.ar    1  UNL1        0.0069
     21 C          -0.9688   60.8437   72.7589 C.ar    1  UNL1        0.0293
     22 S           0.5504   60.0171   72.3159 S.2     1  UNL1       -0.0855
     23 C          -1.9362   60.5065   73.8247 C.ar    1  UNL1        0.0060
     24 C          -3.2922   60.7899   73.6556 C.ar    1  UNL1        0.0005
     25 C          -4.1908   60.4665   74.6514 C.ar    1  UNL1        0.0000
     26 C          -3.7483   59.8744   75.8210 C.ar    1  UNL1        0.0000
     27 C          -2.4044   59.5965   75.9974 C.ar    1  UNL1        0.0000
     28 C          -1.4965   59.9086   75.0068 C.ar    1  UNL1        0.0005
@<TRIPOS>UNITY_ATOM_ATTR
4 1
charge 1
@<TRIPOS>BOND
     1    13    14    1
     2    14     8    1
     3    14    15    1
     4     8    12   ar
     5     8     9   ar
     6     9    10   ar
     7    10    11   ar
     8    10     1    1
     9    11    12   ar
    10     1     6    1
    11     1     2    1
    12     2     3    1
    13     3     4    1
    14     4     5    1
    15     4    17    1
    16     5     6    1
    17    17    18    1
    18    18    22   ar
    19    18    19   ar
    20    19    20   ar
    21    20    21   ar
    22    21    22   ar
    23    21    23    1
    24    23    28   ar
    25    23    24   ar
    26    24    25   ar
    27    25    26   ar
    28    26    27   ar
    29    27    28   ar
    30     4     7    1
    31    15    16    1
#	Name:			ZINC19958437
#	Creating user name:	trannguyen
#	Creation time:		Thu Dec  1 16:45:04 2022


#	Modifying user name:	trannguyen
#	Modification time:	Thu Dec  1 16:45:04 2022

@<TRIPOS>MOLECULE
ZINC19958437
 28 31 0 0 0
SMALL
GASTEIGER

@<TRIPOS>ATOM
      1 N          -2.0249   58.3269   75.9806 N.4     1  UNL1        0.2897
      2 C          -3.3301   57.6937   75.7491 C.3     1  UNL1        0.1680
      3 H          -1.4168   58.0869   75.1977 H       1  UNL1        0.2078
      4 C          -1.4023   57.8156   77.2089 C.3     1  UNL1        0.1524
      5 C          -1.2028   54.7155   76.8727 C.3     1  UNL1        0.0536
      6 C          -0.0705   55.6965   76.7098 C.ar    1  UNL1        0.0785
      7 C          -0.1614   57.0365   76.8564 C.ar    1  UNL1        0.1116
      8 N           1.0841   57.5538   76.6252 N.ar    1  UNL1       -0.2877
      9 C           1.5720   58.8283   76.6408 C.ar    1  UNL1        0.0813
     10 C           2.8713   59.0702   76.3679 C.ar    1  UNL1        0.0191
     11 C           3.7429   58.0090   76.0722 C.ar    1  UNL1        0.0046
     12 C           3.2706   56.7334   76.0575 C.ar    1  UNL1        0.0374
     13 C           1.9102   56.4976   76.3402 C.ar    1  UNL1        0.1473
     14 N           1.1900   55.3863   76.3975 N.ar    1  UNL1       -0.2309
     15 C          -2.1497   59.7900   76.0233 C.3     1  UNL1        0.1557
     16 C          -2.0033   60.3474   74.6308 C.ar    1  UNL1        0.1471
     17 C          -2.9993   60.8104   73.8540 C.ar    1  UNL1        0.1442
     18 O          -2.4463   61.2164   72.6938 O.2     1  UNL1       -0.4390
     19 C          -1.1234   60.9906   72.7706 C.ar    1  UNL1        0.2291
     20 N          -0.8572   60.4646   73.9432 N.ar    1  UNL1       -0.2071
     21 C          -4.4614   60.8667   74.2149 C.3     1  UNL1        0.0741
     22 C          -0.1345   61.2855   71.7125 C.ar    1  UNL1        0.0536
     23 C          -0.2483   62.4506   70.9521 C.ar    1  UNL1        0.0055
     24 C           0.6809   62.7232   69.9699 C.ar    1  UNL1        0.0115
     25 C           1.7185   61.8381   69.7296 C.ar    1  UNL1        0.0577
     26 C           1.8333   60.6778   70.4768 C.ar    1  UNL1        0.0115
     27 C           0.9135   60.3972   71.4656 C.ar    1  UNL1        0.0055
     28 CL          2.8802   62.1847   68.4871 Cl      1  UNL1       -0.0822
@<TRIPOS>UNITY_ATOM_ATTR
1 1
charge 1
@<TRIPOS>BOND
     1     5     6    1
     2     6    14   ar
     3     6     7   ar
     4     7     8   ar
     5     7     4    1
     6     8    13   ar
     7     8     9   ar
     8     9    10   ar
     9    10    11   ar
    10    11    12   ar
    11    12    13   ar
    12    13    14   ar
    13     4     1    1
    14     1     2    1
    15     1    15    1
    16    15    16    1
    17    16    20   ar
    18    16    17   ar
    19    17    18   ar
    20    17    21    1
    21    18    19   ar
    22    19    20   ar
    23    19    22    1
    24    22    27   ar
    25    22    23   ar
    26    23    24   ar
    27    24    25   ar
    28    25    26   ar
    29    25    28    1
    30    26    27   ar
    31     1     3    1
#	Name:			ZINC19968131
#	Creating user name:	trannguyen
#	Creation time:		Thu Dec  1 16:45:04 2022


#	Modifying user name:	trannguyen
#	Modification time:	Thu Dec  1 16:45:04 2022

@<TRIPOS>MOLECULE
ZINC19968131
 22 25 0 0 0
SMALL
GASTEIGER

@<TRIPOS>ATOM
      1 C           2.9853   62.8840   68.3963 C.ar    1  UNL1        0.0264
      2 C           3.7961   61.7728   68.2495 C.ar    1  UNL1        0.0009
      3 C           3.5400   60.6259   68.9795 C.ar    1  UNL1       -0.0041
      4 C           2.4750   60.5880   69.8547 C.ar    1  UNL1       -0.0178
      5 C           1.6532   61.7009   70.0090 C.ar    1  UNL1       -0.0041
      6 C           1.9184   62.8554   69.2699 C.ar    1  UNL1        0.0009
      7 C           0.5927   61.3983   71.0018 C.ar    1  UNL1       -0.0039
      8 C          -0.4604   62.1753   71.4882 C.ar    1  UNL1       -0.0003
      9 C          -1.3236   61.6541   72.4292 C.ar    1  UNL1       -0.0000
     10 C          -1.1569   60.3591   72.8865 C.ar    1  UNL1       -0.0003
     11 C          -0.1189   59.5815   72.4048 C.ar    1  UNL1       -0.0039
     12 C           0.7520   60.0962   71.4679 C.ar    1  UNL1       -0.0178
     13 C           1.9527   59.5070   70.7691 C.3     1  UNL1        0.0526
     14 C           3.2691   64.1309   67.5989 C.3     1  UNL1        0.0722
     15 N           3.2908   63.8022   66.1673 N.4     1  UNL1        0.2313
     16 H           4.0190   63.1108   65.9881 H       1  UNL1        0.2006
     17 H           3.4829   64.6461   65.6275 H       1  UNL1        0.2006
     18 H           2.3854   63.4214   65.8922 H       1  UNL1        0.2006
     19 C           3.2877   66.7320   68.9753 C.3     1  UNL1        0.0002
     20 C           4.6368   66.0544   68.7271 C.3     1  UNL1        0.0060
     21 C           4.9383   64.7735   69.5079 C.3     1  UNL1        0.0063
     22 C           4.6271   64.7021   68.0116 C.3     1  UNL1        0.0538
@<TRIPOS>UNITY_ATOM_ATTR
15 1
charge 1
@<TRIPOS>BOND
     1    19    20    1
     2    20    22    1
     3    20    21    1
     4    21    22    1
     5    22    14    1
     6    14     1    1
     7    14    15    1
     8     1     6   ar
     9     1     2   ar
    10     2     3   ar
    11     3     4   ar
    12     4    13    1
    13     4     5   ar
    14     5     6   ar
    15     5     7    1
    16     7    12   ar
    17     7     8   ar
    18     8     9   ar
    19     9    10   ar
    20    10    11   ar
    21    11    12   ar
    22    12    13    1
    23    15    16    1
    24    15    17    1
    25    15    18    1
#	Name:			ZINC19971031
#	Creating user name:	trannguyen
#	Creation time:		Thu Dec  1 16:45:04 2022


#	Modifying user name:	trannguyen
#	Modification time:	Thu Dec  1 16:45:04 2022

@<TRIPOS>MOLECULE
ZINC19971031
 22 24 0 0 0
SMALL
GASTEIGER

@<TRIPOS>ATOM
      1 C           2.9401   61.8864   68.4344 C.3     1  UNL1        0.0950
      2 N           3.7666   60.6976   68.6824 N.4     1  UNL1        0.2345
      3 H           4.1615   60.7480   69.6215 H       1  UNL1        0.2009
      4 H           4.5217   60.6595   67.9977 H       1  UNL1        0.2009
      5 H           3.1906   59.8599   68.6003 H       1  UNL1        0.2009
      6 C           1.8246   61.9427   69.4461 C.ar    1  UNL1        0.0308
      7 C           0.9111   62.9804   69.4146 C.ar    1  UNL1        0.0046
      8 C          -0.1124   63.0360   70.3376 C.ar    1  UNL1        0.0365
      9 C          -0.2280   62.0526   71.3171 C.ar    1  UNL1        0.1346
     10 C           0.6950   61.0150   71.3379 C.ar    1  UNL1        0.0154
     11 C           1.7142   60.9595   70.4132 C.ar    1  UNL1        0.0004
     12 C           0.3115   60.1023   72.4865 C.3     1  UNL1        0.0767
     13 C          -1.1315   60.5666   72.7957 C.3     1  UNL1        0.2102
     14 O          -1.1375   61.9240   72.3219 O.3     1  UNL1       -0.4754
     15 C           4.9381   65.9906   66.3827 C.3     1  UNL1        0.0307
     16 C           4.7468   65.0878   67.5742 C.ar    1  UNL1       -0.0259
     17 C           5.3522   65.3951   68.7786 C.ar    1  UNL1       -0.0046
     18 C           5.1721   64.5703   69.8728 C.ar    1  UNL1       -0.0005
     19 C           4.3960   63.4316   69.7599 C.ar    1  UNL1        0.0012
     20 C           3.7912   63.1242   68.5557 C.ar    1  UNL1        0.0267
     21 C           3.9666   63.9524   67.4627 C.ar    1  UNL1       -0.0241
     22 C           3.3068   63.6174   66.1499 C.3     1  UNL1        0.0306
@<TRIPOS>UNITY_ATOM_ATTR
2 1
charge 1
@<TRIPOS>BOND
     1    15    16    1
     2    16    21   ar
     3    16    17   ar
     4    17    18   ar
     5    18    19   ar
     6    19    20   ar
     7    20    21   ar
     8    20     1    1
     9    21    22    1
    10     1     6    1
    11     1     2    1
    12     6    11   ar
    13     6     7   ar
    14     7     8   ar
    15     8     9   ar
    16     9    14    1
    17     9    10   ar
    18    10    11   ar
    19    10    12    1
    20    12    13    1
    21    13    14    1
    22     2     3    1
    23     2     4    1
    24     2     5    1
#	Name:			ZINC19971129
#	Creating user name:	trannguyen
#	Creation time:		Thu Dec  1 16:45:04 2022


#	Modifying user name:	trannguyen
#	Modification time:	Thu Dec  1 16:45:04 2022

@<TRIPOS>MOLECULE
ZINC19971129
 23 25 0 0 0
SMALL
GASTEIGER

@<TRIPOS>ATOM
      1 C          -2.0515   61.0268   73.3254 C.3     1  UNL1        0.0953
      2 N          -1.9775   62.3632   73.9310 N.4     1  UNL1        0.2345
      3 H          -1.1482   62.4232   74.5220 H       1  UNL1        0.2009
      4 H          -2.8104   62.5268   74.4965 H       1  UNL1        0.2009
      5 H          -1.9223   63.0673   73.1952 H       1  UNL1        0.2009
      6 C          -0.8208   60.7851   72.4899 C.ar    1  UNL1        0.0308
      7 C          -0.1438   59.5830   72.5835 C.ar    1  UNL1        0.0046
      8 C           0.9848   59.3577   71.8232 C.ar    1  UNL1        0.0365
      9 C           1.4527   60.3402   70.9538 C.ar    1  UNL1        0.1346
     10 C           0.7609   61.5412   70.8644 C.ar    1  UNL1        0.0154
     11 C          -0.3676   61.7630   71.6225 C.ar    1  UNL1        0.0004
     12 C           1.4858   62.3966   69.8435 C.3     1  UNL1        0.0767
     13 C           2.3839   61.3557   69.1339 C.3     1  UNL1        0.2102
     14 O           2.5401   60.3355   70.1349 O.3     1  UNL1       -0.4754
     15 C          -2.2819   58.0772   76.4065 C.ar    1  UNL1       -0.0225
     16 C          -3.2584   58.1340   75.4297 C.ar    1  UNL1       -0.0044
     17 C          -3.1839   59.0886   74.4327 C.ar    1  UNL1        0.0012
     18 C          -2.1330   59.9864   74.4125 C.ar    1  UNL1        0.0309
     19 C          -1.1537   59.9263   75.3864 C.ar    1  UNL1        0.0012
     20 C          -1.2311   58.9750   76.3864 C.ar    1  UNL1       -0.0044
     21 C          -3.6032   56.1671   77.2754 C.3     1  UNL1        0.0047
     22 C          -2.3629   57.0361   77.4933 C.3     1  UNL1        0.0224
     23 C          -1.1110   56.1576   77.4523 C.3     1  UNL1        0.0047
@<TRIPOS>UNITY_ATOM_ATTR
2 1
charge 1
@<TRIPOS>BOND
     1    21    22    1
     2    22    23    1
     3    22    15    1
     4    15    20   ar
     5    15    16   ar
     6    16    17   ar
     7    17    18   ar
     8    18    19   ar
     9    18     1    1
    10    19    20   ar
    11     1     6    1
    12     1     2    1
    13     6    11   ar
    14     6     7   ar
    15     7     8   ar
    16     8     9   ar
    17     9    14    1
    18     9    10   ar
    19    10    11   ar
    20    10    12    1
    21    12    13    1
    22    13    14    1
    23     2     3    1
    24     2     4    1
    25     2     5    1
#	Name:			ZINC19972331
#	Creating user name:	trannguyen
#	Creation time:		Thu Dec  1 16:45:04 2022


#	Modifying user name:	trannguyen
#	Modification time:	Thu Dec  1 16:45:04 2022

@<TRIPOS>MOLECULE
ZINC19972331
 21 22 0 0 0
SMALL
GASTEIGER

@<TRIPOS>ATOM
      1 C          -2.2539   50.6399   74.5872 C.3     1  UNL1        0.0948
      2 N          -1.8166   51.2214   73.3110 N.4     1  UNL1        0.2345
      3 H          -1.2289   52.0352   73.4918 H       1  UNL1        0.2009
      4 H          -2.6329   51.5050   72.7691 H       1  UNL1        0.2009
      5 H          -1.2844   50.5275   72.7859 H       1  UNL1        0.2009
      6 C          -6.2107   51.8434   77.4050 C.3     1  UNL1        0.0307
      7 C          -4.9336   52.2409   76.7107 C.ar    1  UNL1       -0.0262
      8 C          -4.4836   53.5457   76.7856 C.ar    1  UNL1       -0.0091
      9 C          -3.3118   53.9103   76.1491 C.ar    1  UNL1       -0.0262
     10 C          -2.5904   52.9700   75.4374 C.ar    1  UNL1       -0.0245
     11 C          -3.0403   51.6650   75.3630 C.ar    1  UNL1        0.0224
     12 C          -4.2145   51.3016   75.9955 C.ar    1  UNL1       -0.0245
     13 C          -4.7083   49.8804   75.9092 C.3     1  UNL1        0.0306
     14 C          -1.3133   53.3674   74.7432 C.3     1  UNL1        0.0306
     15 C          -2.8210   55.3327   76.2307 C.3     1  UNL1        0.0307
     16 C          -1.0478   50.2209   75.3878 C.ar    1  UNL1        0.0340
     17 C           0.1809   50.0321   74.7737 C.ar    1  UNL1        0.0222
     18 C           1.2633   49.6417   75.5393 C.ar    1  UNL1        0.0988
     19 N           1.1370   49.4497   76.8378 N.ar    1  UNL1       -0.2423
     20 C          -0.0158   49.6203   77.4551 C.ar    1  UNL1        0.0988
     21 C          -1.1418   50.0095   76.7548 C.ar    1  UNL1        0.0222
@<TRIPOS>UNITY_ATOM_ATTR
2 1
charge 1
@<TRIPOS>BOND
     1     6     7    1
     2     7    12   ar
     3     7     8   ar
     4     8     9   ar
     5     9    10   ar
     6     9    15    1
     7    10    11   ar
     8    10    14    1
     9    11    12   ar
    10    11     1    1
    11    12    13    1
    12     1    16    1
    13     1     2    1
    14    16    21   ar
    15    16    17   ar
    16    17    18   ar
    17    18    19   ar
    18    19    20   ar
    19    20    21   ar
    20     2     3    1
    21     2     4    1
    22     2     5    1
#	Name:			ZINC20018365
#	Creating user name:	trannguyen
#	Creation time:		Thu Dec  1 16:45:04 2022


#	Modifying user name:	trannguyen
#	Modification time:	Thu Dec  1 16:45:04 2022

@<TRIPOS>MOLECULE
ZINC20018365
 16 17 0 0 0
SMALL
GASTEIGER

@<TRIPOS>ATOM
      1 C           5.1871   66.5346   66.8365 C.3     1  UNL1        0.1338
      2 N           3.8595   67.1385   66.9738 N.ar    1  UNL1       -0.2884
      3 C           3.3907   68.2553   66.3387 C.ar    1  UNL1        0.1974
      4 N           2.1666   68.4460   66.7422 N.ar    1  UNL1       -0.1518
      5 N           1.8301   67.5302   67.5790 N.ar    1  UNL1       -0.2541
      6 C           2.8332   66.7033   67.7622 C.ar    1  UNL1        0.1764
      7 S           2.8494   65.2940   68.8196 S.2     1  UNL1       -0.0114
      8 H           0.9513   67.4593   68.0171 H       1  UNL1        0.1910
      9 C           4.1495   69.1077   65.3545 C.3     1  UNL1        0.1723
     10 N           4.1313   68.4648   64.0339 N.4     1  UNL1        0.2856
     11 C           5.3035   68.8598   63.2394 C.3     1  UNL1        0.1385
     12 C           5.2759   68.1226   61.8978 C.3     1  UNL1        0.2029
     13 O           4.0457   68.4094   61.2273 O.3     1  UNL1       -0.3412
     14 C           2.8833   68.0369   61.9724 C.3     1  UNL1        0.2029
     15 C           2.8867   68.7731   63.3148 C.3     1  UNL1        0.1385
     16 H           4.1719   67.4557   64.1776 H       1  UNL1        0.2074
@<TRIPOS>UNITY_ATOM_ATTR
10 1
charge 1
@<TRIPOS>BOND
     1     1     2    1
     2     2     6   ar
     3     2     3   ar
     4     3     9    1
     5     3     4   ar
     6     4     5   ar
     7     5     6   ar
     8     6     7    2
     9     9    10    1
    10    10    15    1
    11    10    11    1
    12    11    12    1
    13    12    13    1
    14    13    14    1
    15    14    15    1
    16     5     8    1
    17    10    16    1
#	Name:			ZINC20130678
#	Creating user name:	trannguyen
#	Creation time:		Thu Dec  1 16:45:04 2022


#	Modifying user name:	trannguyen
#	Modification time:	Thu Dec  1 16:45:04 2022

@<TRIPOS>MOLECULE
ZINC20130678
 24 27 0 0 0
SMALL
GASTEIGER

@<TRIPOS>ATOM
      1 C           0.5761   61.5864   70.6126 C.3     1  UNL1        0.0927
      2 C           1.9228   60.9100   70.4256 C.3     1  UNL1        0.0346
      3 C           1.8933   59.3965   70.1971 C.3     1  UNL1        0.0283
      4 C           3.1660   59.2027   69.3706 C.2     1  UNL1       -0.0303
      5 C           3.4528   60.3181   68.7103 C.2     1  UNL1       -0.0265
      6 C           2.4015   61.3257   69.0025 C.3     1  UNL1        0.0474
      7 C           2.6904   62.7758   69.0237 C.ar    1  UNL1       -0.0040
      8 C           3.7037   63.3382   68.2780 C.ar    1  UNL1        0.0113
      9 C           3.9211   64.7089   68.3142 C.ar    1  UNL1        0.0413
     10 C           3.1141   65.5155   69.1060 C.ar    1  UNL1        0.0153
     11 C           2.1038   64.9550   69.8594 C.ar    1  UNL1        0.0152
     12 C           1.8838   63.5834   69.8328 C.ar    1  UNL1        0.0411
     13 N           0.8574   63.0385   70.6201 N.pl3   1  UNL1       -0.3308
     14 N           4.9509   65.2765   67.5543 N.pl3   1  UNL1       -0.3570
     15 H           0.3152   63.6333   71.1873 H       1  UNL1        0.1471
     16 H           5.5222   64.7034   66.9935 H       1  UNL1        0.1424
     17 H           5.1038   66.2487   67.5807 H       1  UNL1        0.1424
     18 C           0.7338   60.5337   72.8780 C.ar    1  UNL1       -0.0018
     19 C           0.1715   60.1546   74.0823 C.ar    1  UNL1        0.0111
     20 C          -1.1675   60.4008   74.3282 C.ar    1  UNL1        0.0577
     21 C          -1.9416   61.0314   73.3705 C.ar    1  UNL1        0.0111
     22 C          -1.3768   61.4152   72.1688 C.ar    1  UNL1       -0.0018
     23 C          -0.0388   61.1685   71.9235 C.ar    1  UNL1       -0.0045
     24 CL         -1.8764   59.9180   75.8376 Cl      1  UNL1       -0.0822
@<TRIPOS>BOND
     1    18    23   ar
     2    18    19   ar
     3    19    20   ar
     4    20    21   ar
     5    20    24    1
     6    21    22   ar
     7    22    23   ar
     8    23     1    1
     9     1    13    1
    10     1     2    1
    11     2     6    1
    12     2     3    1
    13     3     4    1
    14     4     5    2
    15     5     6    1
    16     6     7    1
    17     7    12   ar
    18     7     8   ar
    19     8     9   ar
    20     9    10   ar
    21     9    14    1
    22    10    11   ar
    23    11    12   ar
    24    12    13    1
    25    13    15    1
    26    14    16    1
    27    14    17    1
#	Name:			ZINC20210820
#	Creating user name:	trannguyen
#	Creation time:		Thu Dec  1 16:45:04 2022


#	Modifying user name:	trannguyen
#	Modification time:	Thu Dec  1 16:45:04 2022

@<TRIPOS>MOLECULE
ZINC20210820
 29 32 0 0 0
SMALL
GASTEIGER

@<TRIPOS>ATOM
      1 C          -2.0726   60.4202   74.0530 C.ar    1  UNL1        0.2369
      2 N          -3.3754   60.3248   73.9579 N.ar    1  UNL1       -0.1907
      3 C          -3.8422   60.4542   75.2204 C.ar    1  UNL1        0.2041
      4 N          -2.8056   60.6188   76.0002 N.ar    1  UNL1       -0.0560
      5 O          -1.7843   60.5966   75.3463 O.2     1  UNL1       -0.3370
      6 C          -5.2648   60.4164   75.6420 C.ar    1  UNL1        0.0488
      7 C          -6.0177   61.5869   75.6989 C.ar    1  UNL1        0.0621
      8 N          -7.2819   61.5503   76.0668 N.ar    1  UNL1       -0.2482
      9 C          -7.8768   60.4232   76.4035 C.ar    1  UNL1        0.0995
     10 C          -7.1931   59.2173   76.3803 C.ar    1  UNL1        0.0480
     11 C          -5.8698   59.2056   75.9943 C.ar    1  UNL1       -0.0091
     12 C          -5.0677   57.9344   75.9393 C.3     1  UNL1        0.0872
     13 C          -5.7768   56.8381   76.7368 C.3     1  UNL1        0.1074
     14 N          -7.1821   56.7785   76.3042 N.4     1  UNL1        0.2580
     15 C          -7.9136   57.9579   76.7793 C.3     1  UNL1        0.1310
     16 C          -5.3831   62.9035   75.3313 C.3     1  UNL1        0.0522
     17 H          -7.6158   55.9377   76.6855 H       1  UNL1        0.2039
     18 H          -7.2139   56.7576   75.2849 H       1  UNL1        0.2039
     19 C          -1.0840   60.3395   72.9185 C.3     1  UNL1        0.0927
     20 C          -1.1184   61.6432   72.1185 C.3     1  UNL1        0.0363
     21 C           3.4561   61.8718   68.5892 C.3     1  UNL1        0.0342
     22 C           2.2653   61.8120   69.5109 C.ar    1  UNL1        0.0121
     23 C           1.3214   62.8207   69.4875 C.ar    1  UNL1       -0.0016
     24 C           0.2287   62.7661   70.3325 C.ar    1  UNL1       -0.0044
     25 C           0.0773   61.7025   71.2032 C.ar    1  UNL1       -0.0187
     26 C           1.0182   60.6916   71.2304 C.ar    1  UNL1        0.0323
     27 C           2.1158   60.7440   70.3833 C.ar    1  UNL1        0.1344
     28 O           3.0431   59.7509   70.4087 O.3     1  UNL1       -0.4718
     29 C           2.5657   58.4231   70.6349 C.3     1  UNL1        0.2525
@<TRIPOS>UNITY_ATOM_ATTR
14 1
charge 1
@<TRIPOS>BOND
     1    21    22    1
     2    22    27   ar
     3    22    23   ar
     4    23    24   ar
     5    24    25   ar
     6    25    26   ar
     7    25    20    1
     8    26    27   ar
     9    27    28    1
    10    28    29    1
    11    20    19    1
    12    19     1    1
    13     1     5   ar
    14     1     2   ar
    15     2     3   ar
    16     3     4   ar
    17     3     6    1
    18     4     5   ar
    19     6    11   ar
    20     6     7   ar
    21     7     8   ar
    22     7    16    1
    23     8     9   ar
    24     9    10   ar
    25    10    15    1
    26    10    11   ar
    27    11    12    1
    28    12    13    1
    29    13    14    1
    30    14    15    1
    31    14    17    1
    32    14    18    1
#	Name:			ZINC20256303
#	Creating user name:	trannguyen
#	Creation time:		Thu Dec  1 16:45:04 2022


#	Modifying user name:	trannguyen
#	Modification time:	Thu Dec  1 16:45:04 2022

@<TRIPOS>MOLECULE
ZINC20256303
 41 45 0 0 0
SMALL
GASTEIGER

@<TRIPOS>ATOM
      1 C          -3.1640   59.1850   76.2017 C.3     1  UNL1        0.1052
      2 C          -4.1071   60.2126   76.8313 C.3     1  UNL1        0.1109
      3 N          -5.4876   59.9289   76.4190 N.4     1  UNL1        0.2766
      4 C          -5.9187   58.6041   76.8825 C.3     1  UNL1        0.1113
      5 C          -5.0298   57.5284   76.2543 C.3     1  UNL1        0.1159
      6 C          -3.5731   57.7801   76.6530 C.3     1  UNL1        0.0674
      7 H          -5.5130   59.9253   75.3993 H       1  UNL1        0.2067
      8 N          -2.7078   56.7851   76.0056 N.4     1  UNL1        0.2811
      9 C          -1.6728   56.3056   76.9312 C.3     1  UNL1        0.1672
     10 C          -3.4980   55.6665   75.4743 C.3     1  UNL1        0.1672
     11 H          -2.2404   57.2392   75.2210 H       1  UNL1        0.2069
     12 C          -3.2515   59.2781   74.6769 C.3     1  UNL1        0.0212
     13 C          -3.4245   60.7413   74.2646 C.3     1  UNL1        0.0858
     14 N          -1.6612   60.4278   72.5582 N.am    1  UNL1       -0.2839
     15 C          -2.1965   61.2025   73.5224 C.2     1  UNL1        0.2261
     16 O          -1.6901   62.2710   73.7929 O.2     1  UNL1       -0.2748
     17 H          -2.1084   59.5915   72.2939 H       1  UNL1        0.1549
     18 C           2.7851   65.2473   69.1060 C.3     1  UNL1        0.0594
     19 C           2.3062   63.9623   69.7308 C.ar    1  UNL1        0.0886
     20 N           1.1564   63.7161   70.2932 N.ar    1  UNL1       -0.2427
     21 C           0.8500   62.5117   70.8193 C.ar    1  UNL1        0.0887
     22 C          -0.3413   62.0970   71.4546 C.ar    1  UNL1        0.0343
     23 C          -0.4685   60.8125   71.9321 C.ar    1  UNL1        0.0518
     24 C           0.5677   59.8881   71.8102 C.ar    1  UNL1        0.0153
     25 C           1.7416   60.2645   71.1878 C.ar    1  UNL1        0.0093
     26 C           1.8756   61.5455   70.7090 C.ar    1  UNL1        0.0483
     27 S           3.1531   62.4535   69.8746 S.2     1  UNL1       -0.0708
     28 C          -6.4037   60.9754   76.8916 C.3     1  UNL1        0.1140
     29 C          -7.3415   61.3842   75.7538 C.3     1  UNL1        0.0997
     30 C          -8.7708   61.2846   76.2206 C.ar    1  UNL1       -0.0127
     31 C          -9.2255   62.1067   77.2347 C.ar    1  UNL1       -0.0038
     32 C         -10.5379   62.0185   77.6600 C.ar    1  UNL1       -0.0003
     33 C         -11.3930   61.1015   77.0778 C.ar    1  UNL1       -0.0000
     34 C         -10.9369   60.2761   76.0670 C.ar    1  UNL1       -0.0003
     35 C          -9.6257   60.3673   75.6388 C.ar    1  UNL1       -0.0038
     36 C          -7.0447   62.8037   75.3439 C.ar    1  UNL1       -0.0127
     37 C          -7.8620   63.4450   74.4320 C.ar    1  UNL1       -0.0038
     38 C          -7.5922   64.7486   74.0592 C.ar    1  UNL1       -0.0003
     39 C          -6.4996   65.4075   74.5912 C.ar    1  UNL1       -0.0000
     40 C          -5.6796   64.7647   75.4996 C.ar    1  UNL1       -0.0003
     41 C          -5.9518   63.4626   75.8756 C.ar    1  UNL1       -0.0038
@<TRIPOS>UNITY_ATOM_ATTR
3 1
charge 1
8 1
charge 1
@<TRIPOS>BOND
     1    18    19    1
     2    19    27   ar
     3    19    20   ar
     4    20    21   ar
     5    21    26   ar
     6    21    22   ar
     7    22    23   ar
     8    23    24   ar
     9    23    14    1
    10    24    25   ar
    11    25    26   ar
    12    26    27   ar
    13    14    15   am
    14    15    16    2
    15    15    13    1
    16    13    12    1
    17    12     1    1
    18     1     6    1
    19     1     2    1
    20     2     3    1
    21     3     4    1
    22     3    28    1
    23     4     5    1
    24     5     6    1
    25     6     8    1
    26     8     9    1
    27     8    10    1
    28    28    29    1
    29    29    30    1
    30    29    36    1
    31    30    35   ar
    32    30    31   ar
    33    31    32   ar
    34    32    33   ar
    35    33    34   ar
    36    34    35   ar
    37    36    41   ar
    38    36    37   ar
    39    37    38   ar
    40    38    39   ar
    41    39    40   ar
    42    40    41   ar
    43    14    17    1
    44     3     7    1
    45     8    11    1
#	Name:			ZINC20340495
#	Creating user name:	trannguyen
#	Creation time:		Thu Dec  1 16:45:04 2022


#	Modifying user name:	trannguyen
#	Modification time:	Thu Dec  1 16:45:04 2022

@<TRIPOS>MOLECULE
ZINC20340495
 22 24 0 0 0
SMALL
GASTEIGER

@<TRIPOS>ATOM
      1 C           2.6820   61.6715   69.6450 C.ar    1  UNL1        0.0159
      2 C           2.8179   62.8033   70.4492 C.ar    1  UNL1        0.0014
      3 C           3.1241   64.0196   69.8801 C.ar    1  UNL1        0.0000
      4 C           3.2981   64.1198   68.5000 C.ar    1  UNL1        0.0000
      5 C           3.1623   62.9884   67.6958 C.ar    1  UNL1        0.0000
      6 C           2.8562   61.7720   68.2644 C.ar    1  UNL1        0.0014
      7 C           0.3363   61.3014   71.6048 C.3     1  UNL1        0.0399
      8 C           1.3012   60.2492   71.1222 C.ar    1  UNL1        0.0303
      9 C           2.3530   60.3624   70.2572 C.ar    1  UNL1        0.0637
     10 N           3.0826   59.2850   69.9747 N.ar    1  UNL1       -0.2953
     11 C           2.8034   58.1117   70.5117 C.ar    1  UNL1        0.3160
     12 S           1.3833   58.5084   71.5216 S.2     1  UNL1       -0.0031
     13 N           3.4425   56.8949   70.3385 N.2     1  UNL1       -0.2335
     14 H           3.8432   59.3647   69.3548 H       1  UNL1        0.1721
     15 H           4.2230   56.8294   69.7420 H       1  UNL1        0.4455
     16 H           3.1162   56.0957   70.8118 H       1  UNL1        0.4455
     17 C           3.6272   65.4296   67.8873 C.ar    1  UNL1        0.0000
     18 C           4.6774   65.5316   66.9764 C.ar    1  UNL1        0.0000
     19 C           4.9766   66.7524   66.4064 C.ar    1  UNL1        0.0000
     20 C           4.2425   67.8750   66.7444 C.ar    1  UNL1        0.0000
     21 C           3.2023   67.7806   67.6514 C.ar    1  UNL1        0.0000
     22 C           2.8912   66.5643   68.2243 C.ar    1  UNL1        0.0000
@<TRIPOS>UNITY_ATOM_ATTR
13 1
charge 1
@<TRIPOS>BOND
     1     7     8    1
     2     8    12   ar
     3     8     9   ar
     4     9    10   ar
     5     9     1    1
     6    10    11   ar
     7    11    12   ar
     8    11    13    2
     9     1     6   ar
    10     1     2   ar
    11     2     3   ar
    12     3     4   ar
    13     4     5   ar
    14     4    17    1
    15     5     6   ar
    16    17    22   ar
    17    17    18   ar
    18    18    19   ar
    19    19    20   ar
    20    20    21   ar
    21    21    22   ar
    22    10    14    1
    23    13    15    1
    24    13    16    1
#	Name:			ZINC20439332
#	Creating user name:	trannguyen
#	Creation time:		Thu Dec  1 16:45:04 2022


#	Modifying user name:	trannguyen
#	Modification time:	Thu Dec  1 16:45:04 2022

@<TRIPOS>MOLECULE
ZINC20439332
 31 33 0 0 0
SMALL
GASTEIGER

@<TRIPOS>ATOM
      1 C           1.1405   59.8114   71.8227 C.ar    1  UNL1        0.0100
      2 C           1.7014   58.6741   71.3388 C.ar    1  UNL1        0.0090
      3 S           2.6160   59.2395   69.9197 S.2     1  UNL1       -0.0763
      4 C           2.2500   60.9301   69.9886 C.ar    1  UNL1        0.0869
      5 C           1.4282   61.0379   71.1034 C.ar    1  UNL1        0.0954
      6 C           1.5789   57.2705   71.8737 C.3     1  UNL1        0.0382
      7 C          -1.3395   59.7806   75.2775 C.ar    1  UNL1        0.1386
      8 C           0.0409   59.7305   75.4154 C.ar    1  UNL1        0.0369
      9 C           0.8480   59.7403   74.2971 C.ar    1  UNL1        0.0031
     10 C           0.2760   59.8007   73.0269 C.ar    1  UNL1        0.0006
     11 C          -1.1106   59.8568   72.8921 C.ar    1  UNL1        0.0031
     12 C          -1.9121   59.8408   74.0143 C.ar    1  UNL1        0.0369
     13 O          -2.1321   59.7712   76.3815 O.3     1  UNL1       -0.4755
     14 C          -4.0376   58.3095   76.6516 C.3     1  UNL1        0.0512
     15 C          -3.5416   59.6735   76.1675 C.3     1  UNL1        0.2055
     16 N           2.6789   61.9356   69.1389 N.am    1  UNL1       -0.2752
     17 C           3.7008   62.7354   69.5030 C.2     1  UNL1        0.2514
     18 O           4.2460   62.5739   70.5775 O.2     1  UNL1       -0.2697
     19 H           2.2374   62.0664   68.2687 H       1  UNL1        0.1556
     20 C           4.1584   63.8082   68.5963 C.ar    1  UNL1        0.0729
     21 C           5.1136   64.7409   69.0217 C.ar    1  UNL1        0.0085
     22 C           5.5085   65.7255   68.1353 C.ar    1  UNL1        0.0310
     23 C           4.9523   65.7583   66.8666 C.ar    1  UNL1        0.1384
     24 N           4.0540   64.8654   66.4933 N.ar    1  UNL1       -0.2323
     25 C           3.6506   63.9061   67.3002 C.ar    1  UNL1        0.1043
     26 CL          5.4450   66.9927   65.7498 Cl      1  UNL1       -0.0613
     27 C           0.8803   62.3248   71.5311 C.2     1  UNL1        0.3429
     28 O           1.5026   63.0224   72.3097 O.2     1  UNL1       -0.2448
     29 O          -0.3150   62.7383   71.0620 O.3     1  UNL1       -0.4454
     30 C          -0.3631   63.1827   69.6805 C.3     1  UNL1        0.2089
     31 C           0.6569   64.3034   69.4694 C.3     1  UNL1        0.0513
@<TRIPOS>BOND
     1    14    15    1
     2    15    13    1
     3    13     7    1
     4     7    12   ar
     5     7     8   ar
     6     8     9   ar
     7     9    10   ar
     8    10    11   ar
     9    10     1    1
    10    11    12   ar
    11     1     5   ar
    12     1     2   ar
    13     2     3   ar
    14     2     6    1
    15     3     4   ar
    16     4     5   ar
    17     4    16    1
    18     5    27    1
    19    27    28    2
    20    27    29    1
    21    29    30    1
    22    30    31    1
    23    16    17   am
    24    17    18    2
    25    17    20    1
    26    20    25   ar
    27    20    21   ar
    28    21    22   ar
    29    22    23   ar
    30    23    24   ar
    31    23    26    1
    32    24    25   ar
    33    16    19    1
#	Name:			ZINC20510536
#	Creating user name:	trannguyen
#	Creation time:		Thu Dec  1 16:45:04 2022


#	Modifying user name:	trannguyen
#	Modification time:	Thu Dec  1 16:45:04 2022

@<TRIPOS>MOLECULE
ZINC20510536
 24 25 0 0 0
SMALL
GASTEIGER

@<TRIPOS>ATOM
      1 C          -2.7893   60.2005   74.5780 C.3     1  UNL1        0.1048
      2 N          -3.0851   58.7635   74.5035 N.4     1  UNL1        0.2332
      3 H          -3.2872   58.5076   73.5371 H       1  UNL1        0.2007
      4 H          -3.8942   58.5523   75.0876 H       1  UNL1        0.2007
      5 H          -2.2792   58.2329   74.8342 H       1  UNL1        0.2007
      6 C          -1.5939   60.5127   73.7150 C.ar    1  UNL1        0.0565
      7 C          -1.7557   61.2263   72.5423 C.ar    1  UNL1        0.0058
      8 C          -0.6605   61.5136   71.7502 C.ar    1  UNL1        0.0297
      9 C           0.6008   61.0858   72.1302 C.ar    1  UNL1        0.1424
     10 C           0.7640   60.3707   73.3038 C.ar    1  UNL1        0.0591
     11 C          -0.3331   60.0892   74.0999 C.ar    1  UNL1        0.1437
     12 F          -0.1744   59.3965   75.2488 F       1  UNL1       -0.2042
     13 F           1.6714   61.3668   71.3556 F       1  UNL1       -0.2041
     14 C          -3.9981   60.9965   74.0818 C.3     1  UNL1        0.2014
     15 O          -5.0981   60.7962   74.9718 O.3     1  UNL1       -0.3500
     16 C          -7.9028   63.8949   74.0460 C.3     1  UNL1        0.0001
     17 C          -7.2646   62.6728   74.7094 C.3     1  UNL1        0.0024
     18 C          -5.8966   63.0566   75.2770 C.3     1  UNL1        0.0296
     19 C          -5.2585   61.8345   75.9404 C.3     1  UNL1        0.1155
     20 C          -6.1602   61.3402   77.0733 C.3     1  UNL1        0.0296
     21 C          -7.5282   60.9564   76.5058 C.3     1  UNL1        0.0023
     22 C          -8.1663   62.1785   75.8424 C.3     1  UNL1        0.0002
     23 C          -8.4299   60.4621   77.6387 C.3     1  UNL1        0.0001
     24 C          -7.3564   59.8446   75.4687 C.3     1  UNL1        0.0001
@<TRIPOS>UNITY_ATOM_ATTR
2 1
charge 1
@<TRIPOS>BOND
     1    16    17    1
     2    17    22    1
     3    17    18    1
     4    18    19    1
     5    19    20    1
     6    19    15    1
     7    20    21    1
     8    21    22    1
     9    21    23    1
    10    21    24    1
    11    15    14    1
    12    14     1    1
    13     1     6    1
    14     1     2    1
    15     6    11   ar
    16     6     7   ar
    17     7     8   ar
    18     8     9   ar
    19     9    10   ar
    20     9    13    1
    21    10    11   ar
    22    11    12    1
    23     2     3    1
    24     2     4    1
    25     2     5    1
#	Name:			ZINC20532185
#	Creating user name:	trannguyen
#	Creation time:		Thu Dec  1 16:45:04 2022


#	Modifying user name:	trannguyen
#	Modification time:	Thu Dec  1 16:45:04 2022

@<TRIPOS>MOLECULE
ZINC20532185
 37 40 0 0 0
SMALL
GASTEIGER

@<TRIPOS>ATOM
      1 C           0.0401   59.6211   76.0330 C.3     1  UNL1        0.0971
      2 N          -5.1256   59.5275   75.9458 N.4     1  UNL1        0.2799
      3 C          -4.2274   58.4918   75.4167 C.3     1  UNL1        0.1104
      4 C          -2.8057   59.0428   75.2802 C.3     1  UNL1        0.0874
      5 C          -2.4039   59.6616   76.6168 C.ar    1  UNL1       -0.0092
      6 C          -3.3687   59.9739   77.5262 C.ar    1  UNL1        0.0595
      7 S          -2.4627   60.6428   78.8930 S.2     1  UNL1       -0.0686
      8 C          -0.8239   60.4784   78.1999 C.ar    1  UNL1        0.0913
      9 C          -1.0881   59.9341   76.9820 C.ar    1  UNL1        0.0145
     10 C          -4.8418   59.7832   77.3713 C.3     1  UNL1        0.1390
     11 H          -4.9560   60.3900   75.4283 H       1  UNL1        0.2071
     12 N           0.4105   60.8223   78.7631 N.ar    1  UNL1       -0.2986
     13 C           1.1257   60.0587   79.6403 C.ar    1  UNL1        0.0806
     14 C           2.2576   60.7233   79.9519 C.ar    1  UNL1        0.0205
     15 C           2.2372   61.9451   79.2504 C.ar    1  UNL1        0.0205
     16 C           1.0964   61.9798   78.5310 C.ar    1  UNL1        0.0806
     17 C          -7.3054   60.3563   75.1983 C.3     1  UNL1        0.0670
     18 C          -6.5328   59.1554   75.7476 C.3     1  UNL1        0.1059
     19 N          -0.4538   59.6687   74.6546 N.am    1  UNL1       -0.2865
     20 C           0.2961   60.2366   73.6893 C.2     1  UNL1        0.3047
     21 O           1.3825   60.7092   73.9626 O.2     1  UNL1       -0.2525
     22 N          -0.1583   60.2805   72.4213 N.am    1  UNL1       -0.2682
     23 H          -1.3335   59.2860   74.4333 H       1  UNL1        0.1512
     24 H          -1.0658   59.9613   72.2122 H       1  UNL1        0.1564
     25 C           0.6600   60.7799   71.4018 C.ar    1  UNL1        0.0546
     26 C           1.5808   59.9473   70.7783 C.ar    1  UNL1        0.0149
     27 C           2.3881   60.4402   69.7717 C.ar    1  UNL1        0.0044
     28 C           2.2786   61.7606   69.3785 C.ar    1  UNL1        0.0370
     29 C           1.3643   62.5982   70.0014 C.ar    1  UNL1        0.1400
     30 C           0.5523   62.1072   71.0121 C.ar    1  UNL1        0.0516
     31 O           1.2610   63.8976   69.6171 O.3     1  UNL1       -0.4714
     32 C           2.4743   64.5727   69.2793 C.3     1  UNL1        0.2525
     33 C           0.5844   58.2227   76.3316 C.3     1  UNL1        0.0242
     34 C           2.0947   58.3021   76.5630 C.3     1  UNL1        0.0020
     35 C           2.7874   57.1694   75.8027 C.3     1  UNL1        0.0001
     36 C           2.5097   57.3161   74.3052 C.3     1  UNL1        0.0000
     37 C           4.2957   57.2364   76.0506 C.3     1  UNL1        0.0000
@<TRIPOS>UNITY_ATOM_ATTR
2 1
charge 1
@<TRIPOS>BOND
     1    17    18    1
     2    18     2    1
     3     2    10    1
     4     2     3    1
     5     3     4    1
     6     4     5    1
     7     5     9   ar
     8     5     6   ar
     9     6     7   ar
    10     6    10    1
    11     7     8   ar
    12     8     9   ar
    13     8    12    1
    14     9     1    1
    15     1    33    1
    16     1    19    1
    17    33    34    1
    18    34    35    1
    19    35    36    1
    20    35    37    1
    21    19    20   am
    22    20    21    2
    23    20    22   am
    24    22    25    1
    25    25    30   ar
    26    25    26   ar
    27    26    27   ar
    28    27    28   ar
    29    28    29   ar
    30    29    30   ar
    31    29    31    1
    32    31    32    1
    33    12    16   ar
    34    12    13   ar
    35    13    14   ar
    36    14    15   ar
    37    15    16   ar
    38     2    11    1
    39    19    23    1
    40    22    24    1
#	Name:			ZINC20573353
#	Creating user name:	trannguyen
#	Creation time:		Thu Dec  1 16:45:04 2022


#	Modifying user name:	trannguyen
#	Modification time:	Thu Dec  1 16:45:04 2022

@<TRIPOS>MOLECULE
ZINC20573353
 39 43 0 0 0
SMALL
GASTEIGER

@<TRIPOS>ATOM
      1 C          -1.1080   59.9669   74.1701 C.3     1  UNL1        0.1659
      2 C          -2.0200   61.0643   73.6626 C.2     1  UNL1        0.0799
      3 N          -1.3967   61.6700   72.7286 N.2     1  UNL1       -0.1769
      4 N          -0.1261   61.1533   72.4939 N.am    1  UNL1       -0.1349
      5 C           0.1368   60.1164   73.3166 C.2     1  UNL1        0.2605
      6 O           1.1483   59.4489   73.3630 O.2     1  UNL1       -0.2721
      7 C           0.7527   61.6373   71.5362 C.ar    1  UNL1        0.1887
      8 N           1.0108   62.8822   71.2098 N.ar    1  UNL1       -0.2224
      9 C           1.9030   63.2113   70.2514 C.ar    1  UNL1        0.0893
     10 C           2.2749   64.5028   69.8106 C.ar    1  UNL1        0.0197
     11 C           3.2011   64.6625   68.8136 C.ar    1  UNL1        0.0016
     12 C           3.8049   63.5724   68.2031 C.ar    1  UNL1        0.0006
     13 C           3.4654   62.2951   68.6090 C.ar    1  UNL1        0.0081
     14 C           2.5383   62.1251   69.6070 C.ar    1  UNL1        0.0498
     15 S           1.8162   60.7243   70.4272 S.2     1  UNL1       -0.0495
     16 C          -0.7797   60.1806   75.6491 C.3     1  UNL1        0.0665
     17 N           0.6112   60.6341   75.7814 N.4     1  UNL1        0.2511
     18 H           0.6307   61.6539   75.7845 H       1  UNL1        0.2033
     19 H           1.1483   60.2687   74.9950 H       1  UNL1        0.2033
     20 C           1.2103   60.1385   77.0278 C.3     1  UNL1        0.1109
     21 C           2.7201   59.9780   76.8394 C.3     1  UNL1        0.1336
     22 C           3.0239   58.5712   76.3927 C.ar    1  UNL1        0.1690
     23 C           3.8406   57.7014   77.0173 C.ar    1  UNL1        0.2205
     24 N           3.8294   56.5483   76.2800 N.ar    1  UNL1       -0.2270
     25 C           3.0056   56.7536   75.2297 C.ar    1  UNL1        0.3715
     26 N           2.5236   57.9639   75.3064 N.ar    1  UNL1       -0.2328
     27 H           4.3287   55.7232   76.4783 H       1  UNL1        0.3117
     28 H           1.8924   58.3675   74.6676 H       1  UNL1        0.3113
     29 C          -2.1240   58.9991   77.3924 C.3     1  UNL1        0.0061
     30 C          -0.9612   58.8641   76.4072 C.3     1  UNL1        0.0558
     31 C          -3.4065   61.3780   74.1626 C.3     1  UNL1        0.1055
     32 S          -4.2815   59.8318   74.5290 S.3     1  UNL1       -0.1075
     33 C          -5.9031   60.3555   74.9772 C.ar    1  UNL1        0.0256
     34 C          -6.3004   61.6666   74.7445 C.ar    1  UNL1        0.0070
     35 C          -7.5737   62.0727   75.0922 C.ar    1  UNL1        0.0119
     36 C          -8.4499   61.1782   75.6818 C.ar    1  UNL1        0.0577
     37 C          -8.0551   59.8734   75.9200 C.ar    1  UNL1        0.0119
     38 C          -6.7851   59.4598   75.5695 C.ar    1  UNL1        0.0070
     39 CL        -10.0473   61.6945   76.1241 Cl      1  UNL1       -0.0822
@<TRIPOS>UNITY_ATOM_ATTR
17 1
charge 1
26 1
charge 1
@<TRIPOS>BOND
     1    29    30    1
     2    30    16    1
     3    16     1    1
     4    16    17    1
     5     1     5    1
     6     1     2    1
     7     2     3    2
     8     2    31    1
     9     3     4    1
    10     4     5   am
    11     4     7    1
    12     5     6    2
    13     7    15   ar
    14     7     8   ar
    15     8     9   ar
    16     9    14   ar
    17     9    10   ar
    18    10    11   ar
    19    11    12   ar
    20    12    13   ar
    21    13    14   ar
    22    14    15   ar
    23    31    32    1
    24    32    33    1
    25    33    38   ar
    26    33    34   ar
    27    34    35   ar
    28    35    36   ar
    29    36    37   ar
    30    36    39    1
    31    37    38   ar
    32    17    20    1
    33    20    21    1
    34    21    22    1
    35    22    26   ar
    36    22    23   ar
    37    23    24   ar
    38    24    25   ar
    39    25    26   ar
    40    17    18    1
    41    17    19    1
    42    24    27    1
    43    26    28    1
#	Name:			ZINC20639794
#	Creating user name:	trannguyen
#	Creation time:		Thu Dec  1 16:45:04 2022


#	Modifying user name:	trannguyen
#	Modification time:	Thu Dec  1 16:45:04 2022

@<TRIPOS>MOLECULE
ZINC20639794
 25 28 0 0 0
SMALL
GASTEIGER

@<TRIPOS>ATOM
      1 N           3.0932   64.4760   68.9438 N.pl3   1  UNL1       -0.2825
      2 C           4.5547   64.2479   69.0092 C.3     1  UNL1        0.0990
      3 C           5.3613   65.4661   68.5319 C.3     1  UNL1        0.0823
      4 C           4.7548   66.1036   67.3072 C.3     1  UNL1        0.1072
      5 N           3.8369   67.1782   67.7435 N.4     1  UNL1        0.2772
      6 C           2.5821   66.7215   68.1648 C.3     1  UNL1        0.1272
      7 C           2.6875   65.7908   69.3898 C.3     1  UNL1        0.1539
      8 H           4.2704   67.5921   68.5688 H       1  UNL1        0.2067
      9 C          -1.0043   61.2622   72.0655 C.ar    1  UNL1        0.0016
     10 C          -0.2090   60.1255   72.0753 C.ar    1  UNL1        0.0006
     11 C           1.0289   60.1599   71.4592 C.ar    1  UNL1        0.0081
     12 C           1.4504   61.3148   70.8495 C.ar    1  UNL1        0.0497
     13 C           0.6677   62.4911   70.8196 C.ar    1  UNL1        0.0892
     14 C          -0.5914   62.4198   71.4590 C.ar    1  UNL1        0.0197
     15 N           1.2224   63.5476   70.1856 N.ar    1  UNL1       -0.2241
     16 C           2.4077   63.4891   69.6222 C.ar    1  UNL1        0.1632
     17 S           2.9101   61.8085   69.9651 S.2     1  UNL1       -0.0515
     18 C           3.7006   68.2081   66.7050 C.3     1  UNL1        0.1057
     19 C           4.6661   67.9057   65.5571 C.3     1  UNL1        0.0656
     20 C           4.8291   69.1529   64.6859 C.3     1  UNL1        0.0330
     21 C           4.3664   68.8502   63.2839 C.ar    1  UNL1       -0.0150
     22 C           3.0300   68.6132   63.0221 C.ar    1  UNL1        0.0032
     23 C           2.6463   68.3494   61.7492 C.ar    1  UNL1        0.0351
     24 S           4.2005   68.4178   60.8734 S.2     1  UNL1       -0.0863
     25 C           5.2553   68.8008   62.2619 C.ar    1  UNL1        0.0312
@<TRIPOS>UNITY_ATOM_ATTR
5 1
charge 1
@<TRIPOS>BOND
     1     9    14   ar
     2     9    10   ar
     3    10    11   ar
     4    11    12   ar
     5    12    17   ar
     6    12    13   ar
     7    13    14   ar
     8    13    15   ar
     9    15    16   ar
    10    16    17   ar
    11    16     1    1
    12     1     7    1
    13     1     2    1
    14     2     3    1
    15     3     4    1
    16     4     5    1
    17     5     6    1
    18     5    18    1
    19     6     7    1
    20    18    19    1
    21    19    20    1
    22    20    21    1
    23    21    25   ar
    24    21    22   ar
    25    22    23   ar
    26    23    24   ar
    27    24    25   ar
    28     5     8    1
#	Name:			ZINC20839810
#	Creating user name:	trannguyen
#	Creation time:		Thu Dec  1 16:45:04 2022


#	Modifying user name:	trannguyen
#	Modification time:	Thu Dec  1 16:45:04 2022

@<TRIPOS>MOLECULE
ZINC20839810
 11 12 0 0 0
SMALL
GASTEIGER

@<TRIPOS>ATOM
      1 C           5.4694   65.4680   68.3997 C.3     1  UNL1        0.0786
      2 C           4.0343   65.0980   68.8480 C.3     1  UNL1        0.0242
      3 C           3.8127   64.7279   67.3691 C.3     1  UNL1        0.0786
      4 C           4.8056   65.8719   67.0674 C.3     1  UNL1        0.2530
      5 N           4.1080   67.1728   67.1742 N.2     1  UNL1       -0.1496
      6 C           3.3566   67.3802   68.3548 C.2     1  UNL1        0.2632
      7 C           3.2886   66.3699   69.2157 C.3     1  UNL1        0.1034
      8 C           4.2067   68.1286   66.1860 C.2     1  UNL1        0.4344
      9 N           3.1479   68.7437   65.7739 N.2     1  UNL1       -0.0095
     10 O           1.8687   68.3198   66.2086 O.2     1  UNL1       -0.4042
     11 H           1.1007   68.7659   65.9098 H       1  UNL1        0.3280
@<TRIPOS>UNITY_ATOM_ATTR
5 1
charge 1
@<TRIPOS>BOND
     1     1     4    1
     2     1     2    1
     3     2     7    1
     4     2     3    1
     5     3     4    1
     6     4     5    1
     7     5     6    2
     8     5     8    1
     9     6     7    1
    10     8     9    2
    11     9    10    1
    12    10    11    1
#	Name:			ZINC20842367
#	Creating user name:	trannguyen
#	Creation time:		Thu Dec  1 16:45:04 2022


#	Modifying user name:	trannguyen
#	Modification time:	Thu Dec  1 16:45:04 2022

@<TRIPOS>MOLECULE
ZINC20842367
 44 48 0 0 0
SMALL
GASTEIGER

@<TRIPOS>ATOM
      1 N          -2.3936   57.5063   76.1215 N.4     1  UNL1        0.2950
      2 C          -1.7866   58.7629   76.5820 C.3     1  UNL1        0.1686
      3 C          -1.6310   59.7163   75.3949 C.3     1  UNL1        0.1686
      4 N          -2.9481   59.9614   74.7909 N.4     1  UNL1        0.2950
      5 C          -3.5551   58.7048   74.3304 C.3     1  UNL1        0.1686
      6 C          -3.7107   57.7514   75.5174 C.3     1  UNL1        0.1686
      7 H          -1.7874   57.1081   75.4043 H       1  UNL1        0.2083
      8 H          -3.5543   60.3595   75.5081 H       1  UNL1        0.2083
      9 C          -2.4903   56.5350   77.2193 C.3     1  UNL1        0.1844
     10 C          -2.3258   54.0812   76.2428 C.1     1  UNL1       -0.0515
     11 C          -2.3988   55.1699   76.6761 C.1     1  UNL1       -0.0277
     12 C          -2.2342   52.7162   75.6995 C.3     1  UNL1        0.1802
     13 O          -2.0696   52.7781   74.2815 O.3     1  UNL1       -0.3686
     14 H          -1.2575   53.2650   74.0711 H       1  UNL1        0.2121
     15 C           1.1167   50.7151   77.4359 C.ar    1  UNL1       -0.0000
     16 C           1.0136   50.8257   76.0618 C.ar    1  UNL1       -0.0002
     17 C          -0.0709   51.4730   75.4999 C.ar    1  UNL1       -0.0007
     18 C          -1.0520   52.0101   76.3122 C.ar    1  UNL1        0.0172
     19 C          -0.9460   51.9047   77.6864 C.ar    1  UNL1       -0.0007
     20 C           0.1358   51.2526   78.2481 C.ar    1  UNL1       -0.0002
     21 C          -3.4958   51.9597   76.0264 C.ar    1  UNL1        0.0172
     22 C          -4.4879   52.5620   76.7772 C.ar    1  UNL1       -0.0007
     23 C          -5.6473   51.8697   77.0729 C.ar    1  UNL1       -0.0002
     24 C          -5.8103   50.5718   76.6263 C.ar    1  UNL1       -0.0000
     25 C          -4.8158   49.9674   75.8803 C.ar    1  UNL1       -0.0002
     26 C          -3.6586   50.6615   75.5801 C.ar    1  UNL1       -0.0007
     27 C          -2.8513   60.9326   73.6931 C.3     1  UNL1        0.1844
     28 C          -1.4566   61.0116   73.2293 C.1     1  UNL1       -0.0277
     29 C          -0.3441   61.0745   72.8594 C.1     1  UNL1       -0.0515
     30 C           1.0507   61.1535   72.3957 C.3     1  UNL1        0.1802
     31 O           1.8928   61.5423   73.4827 O.3     1  UNL1       -0.3686
     32 H           1.8253   60.8868   74.1944 H       1  UNL1        0.2121
     33 C           1.4858   59.8059   71.8802 C.ar    1  UNL1        0.0172
     34 C           1.3152   58.6787   72.6623 C.ar    1  UNL1       -0.0007
     35 C           1.7098   57.4419   72.1875 C.ar    1  UNL1       -0.0002
     36 C           2.2842   57.3336   70.9348 C.ar    1  UNL1       -0.0000
     37 C           2.4600   58.4614   70.1551 C.ar    1  UNL1       -0.0002
     38 C           2.0605   59.6975   70.6277 C.ar    1  UNL1       -0.0007
     39 C           1.1555   62.1720   71.2899 C.ar    1  UNL1        0.0172
     40 C           0.0490   62.4685   70.5161 C.ar    1  UNL1       -0.0007
     41 C           0.1440   63.4063   69.5049 C.ar    1  UNL1       -0.0002
     42 C           1.3479   64.0402   69.2610 C.ar    1  UNL1       -0.0000
     43 C           2.4558   63.7396   70.0310 C.ar    1  UNL1       -0.0002
     44 C           2.3595   62.8056   71.0456 C.ar    1  UNL1       -0.0007
@<TRIPOS>UNITY_ATOM_ATTR
1 1
charge 1
4 1
charge 1
@<TRIPOS>BOND
     1    15    20   ar
     2    15    16   ar
     3    16    17   ar
     4    17    18   ar
     5    18    19   ar
     6    18    12    1
     7    19    20   ar
     8    12    10    1
     9    12    21    1
    10    12    13    1
    11    10    11    3
    12    11     9    1
    13     9     1    1
    14     1     6    1
    15     1     2    1
    16     2     3    1
    17     3     4    1
    18     4     5    1
    19     4    27    1
    20     5     6    1
    21    27    28    1
    22    28    29    3
    23    29    30    1
    24    30    33    1
    25    30    39    1
    26    30    31    1
    27    33    38   ar
    28    33    34   ar
    29    34    35   ar
    30    35    36   ar
    31    36    37   ar
    32    37    38   ar
    33    39    44   ar
    34    39    40   ar
    35    40    41   ar
    36    41    42   ar
    37    42    43   ar
    38    43    44   ar
    39    21    26   ar
    40    21    22   ar
    41    22    23   ar
    42    23    24   ar
    43    24    25   ar
    44    25    26   ar
    45     1     7    1
    46     4     8    1
    47    31    32    1
    48    13    14    1
#	Name:			ZINC20874764
#	Creating user name:	trannguyen
#	Creation time:		Thu Dec  1 16:45:04 2022


#	Modifying user name:	trannguyen
#	Modification time:	Thu Dec  1 16:45:04 2022

@<TRIPOS>MOLECULE
ZINC20874764
 35 38 0 0 0
SMALL
GASTEIGER

@<TRIPOS>ATOM
      1 C           1.5302   60.0813   71.3730 C.ar    1  UNL1        0.1726
      2 C           0.5618   59.7387   72.3033 C.ar    1  UNL1        0.0415
      3 C          -0.5455   60.5474   72.4786 C.ar    1  UNL1        0.0363
      4 C          -0.6929   61.6962   71.7238 C.ar    1  UNL1        0.0113
      5 C           0.2724   62.0470   70.7974 C.ar    1  UNL1        0.0714
      6 C           1.3852   61.2400   70.6169 C.ar    1  UNL1        0.1788
      7 BR          0.0710   63.6233   69.7724 Br      1  UNL1       -0.0457
      8 O           2.6198   59.2863   71.1994 O.3     1  UNL1       -0.4724
      9 C           3.4996   57.2753   70.1879 C.3     1  UNL1        0.0512
     10 C           2.3822   57.8867   71.0359 C.3     1  UNL1        0.2057
     11 O           2.3328   61.5802   69.7023 O.3     1  UNL1       -0.4671
     12 C           3.5190   62.2037   70.1985 C.3     1  UNL1        0.2322
     13 C           3.9546   63.2855   69.2441 C.ar    1  UNL1        0.0211
     14 C           4.8825   64.2284   69.6451 C.ar    1  UNL1       -0.0010
     15 C           5.2854   65.2183   68.7682 C.ar    1  UNL1       -0.0045
     16 C           4.7532   65.2708   67.4935 C.ar    1  UNL1       -0.0219
     17 C           3.8217   64.3308   67.0940 C.ar    1  UNL1       -0.0045
     18 C           3.4221   63.3385   67.9696 C.ar    1  UNL1       -0.0010
     19 C           5.1889   66.3527   66.5392 C.3     1  UNL1        0.0310
     20 C          -1.5975   60.1725   73.4905 C.3     1  UNL1        0.1299
     21 N          -2.4299   61.3455   73.7888 N.4     1  UNL1        0.2580
     22 H          -2.2827   62.0513   73.0673 H       1  UNL1        0.2039
     23 H          -2.1632   61.7090   74.7038 H       1  UNL1        0.2039
     24 C          -3.8536   60.9853   73.8251 C.3     1  UNL1        0.1074
     25 C          -4.4784   61.5055   75.1212 C.3     1  UNL1        0.0886
     26 C          -5.9641   61.6721   74.9311 C.ar    1  UNL1        0.0021
     27 C          -6.8756   60.6890   74.8637 C.ar    1  UNL1        0.0683
     28 N          -8.1236   61.2212   74.6854 N.ar    1  UNL1       -0.3523
     29 C          -8.0434   62.5948   74.6324 C.ar    1  UNL1        0.0563
     30 C          -6.6873   62.9376   74.7840 C.ar    1  UNL1        0.0132
     31 C          -6.3016   64.2790   74.7650 C.ar    1  UNL1        0.0012
     32 C          -7.2460   65.2543   74.6082 C.ar    1  UNL1        0.0001
     33 C          -8.5850   64.9214   74.4583 C.ar    1  UNL1        0.0015
     34 C          -8.9871   63.6036   74.4694 C.ar    1  UNL1        0.0170
     35 H          -8.9549   60.6997   74.6067 H       1  UNL1        0.1660
@<TRIPOS>UNITY_ATOM_ATTR
21 1
charge 1
@<TRIPOS>BOND
     1     9    10    1
     2    10     8    1
     3     8     1    1
     4     1     6   ar
     5     1     2   ar
     6     2     3   ar
     7     3     4   ar
     8     3    20    1
     9     4     5   ar
    10     5     6   ar
    11     5     7    1
    12     6    11    1
    13    11    12    1
    14    12    13    1
    15    13    18   ar
    16    13    14   ar
    17    14    15   ar
    18    15    16   ar
    19    16    17   ar
    20    16    19    1
    21    17    18   ar
    22    20    21    1
    23    21    24    1
    24    24    25    1
    25    25    26    1
    26    26    30   ar
    27    26    27   ar
    28    27    28   ar
    29    28    29   ar
    30    29    34   ar
    31    29    30   ar
    32    30    31   ar
    33    31    32   ar
    34    32    33   ar
    35    33    34   ar
    36    21    22    1
    37    21    23    1
    38    28    35    1
#	Name:			ZINC20919926
#	Creating user name:	trannguyen
#	Creation time:		Thu Dec  1 16:45:04 2022


#	Modifying user name:	trannguyen
#	Modification time:	Thu Dec  1 16:45:04 2022

@<TRIPOS>MOLECULE
ZINC20919926
 39 43 0 0 0
SMALL
GASTEIGER

@<TRIPOS>ATOM
      1 C          -0.7930   59.8982   75.3490 C.ar    1  UNL1        0.0857
      2 C          -0.9367   60.4158   74.0522 C.ar    1  UNL1        0.0503
      3 C          -2.1817   60.6608   73.5530 C.ar    1  UNL1        0.0044
      4 C          -3.2960   60.3820   74.3681 C.ar    1  UNL1        0.0176
      5 C          -4.6044   60.6131   73.9117 C.ar    1  UNL1        0.0020
      6 C          -5.6627   60.3349   74.7183 C.ar    1  UNL1        0.0062
      7 C          -5.4668   59.8190   76.0061 C.ar    1  UNL1        0.0267
      8 C          -4.1953   59.5814   76.4836 C.ar    1  UNL1        0.0252
      9 C          -3.0855   59.8599   75.6698 C.ar    1  UNL1        0.0817
     10 N          -1.8421   59.6341   76.1055 N.ar    1  UNL1       -0.2454
     11 C           2.5177   58.2393   76.0093 C.ar    1  UNL1        0.1390
     12 C           3.1142   59.1548   76.8662 C.ar    1  UNL1        0.0400
     13 C           2.4433   60.3053   77.2325 C.ar    1  UNL1        0.0401
     14 C           1.1692   60.5523   76.7463 C.ar    1  UNL1        0.1403
     15 C           0.5659   59.6369   75.8781 C.ar    1  UNL1        0.0545
     16 C           1.2461   58.4748   75.5169 C.ar    1  UNL1        0.0414
     17 C           4.6099   57.1903   75.5876 C.3     1  UNL1        0.2525
     18 O           3.1847   57.1091   75.6530 O.3     1  UNL1       -0.4714
     19 O           0.5105   61.6843   77.1072 O.3     1  UNL1       -0.4714
     20 C           0.6436   62.1074   78.4657 C.3     1  UNL1        0.2525
     21 S          -6.8604   59.4704   77.0266 S.3     1  UNL1       -0.1127
     22 C          -8.2372   60.3027   76.1884 C.3     1  UNL1        0.0742
     23 C           0.2824   60.7004   73.2134 C.3     1  UNL1        0.1313
     24 N           0.0997   61.9710   72.4993 N.4     1  UNL1        0.2582
     25 H           0.8613   62.6038   72.7442 H       1  UNL1        0.2039
     26 H          -0.7984   62.3706   72.7715 H       1  UNL1        0.2039
     27 C           0.0974   61.7621   71.0452 C.3     1  UNL1        0.1156
     28 C           1.4942   61.3360   70.5889 C.3     1  UNL1        0.1758
     29 C           2.2651   62.5479   70.1326 C.ar    1  UNL1        0.2714
     30 N           1.7085   63.7371   69.7768 N.ar    1  UNL1       -0.2395
     31 C           2.7402   64.5841   69.4242 C.ar    1  UNL1        0.1820
     32 C           2.8038   65.8991   68.9836 C.ar    1  UNL1        0.0458
     33 C           4.0288   66.4689   68.7096 C.ar    1  UNL1        0.0039
     34 C           5.1968   65.7370   68.8711 C.ar    1  UNL1        0.0039
     35 C           5.1535   64.4421   69.3041 C.ar    1  UNL1        0.0458
     36 C           3.9230   63.8435   69.5877 C.ar    1  UNL1        0.1820
     37 N           3.5603   62.6109   70.0268 N.ar    1  UNL1       -0.2395
     38 H           0.7482   63.9536   69.7717 H       1  UNL1        0.3111
     39 H           4.1827   61.8767   70.2337 H       1  UNL1        0.3111
@<TRIPOS>UNITY_ATOM_ATTR
24 1
charge 1
37 1
charge 1
@<TRIPOS>BOND
     1    17    18    1
     2    18    11    1
     3    11    16   ar
     4    11    12   ar
     5    12    13   ar
     6    13    14   ar
     7    14    15   ar
     8    14    19    1
     9    15    16   ar
    10    15     1    1
    11     1    10   ar
    12     1     2   ar
    13     2     3   ar
    14     2    23    1
    15     3     4   ar
    16     4     9   ar
    17     4     5   ar
    18     5     6   ar
    19     6     7   ar
    20     7     8   ar
    21     7    21    1
    22     8     9   ar
    23     9    10   ar
    24    21    22    1
    25    23    24    1
    26    24    27    1
    27    27    28    1
    28    28    29    1
    29    29    37   ar
    30    29    30   ar
    31    30    31   ar
    32    31    36   ar
    33    31    32   ar
    34    32    33   ar
    35    33    34   ar
    36    34    35   ar
    37    35    36   ar
    38    36    37   ar
    39    19    20    1
    40    24    25    1
    41    24    26    1
    42    30    38    1
    43    37    39    1
#	Name:			ZINC20966789
#	Creating user name:	trannguyen
#	Creation time:		Thu Dec  1 16:45:04 2022


#	Modifying user name:	trannguyen
#	Modification time:	Thu Dec  1 16:45:04 2022

@<TRIPOS>MOLECULE
ZINC20966789
 11 12 0 0 0
SMALL
GASTEIGER

@<TRIPOS>ATOM
      1 C           1.6840   62.9358   71.2517 C.3     1  UNL1        0.0586
      2 C           1.4960   63.4225   69.8133 C.3     1  UNL1        0.2476
      3 C           2.6698   64.2725   69.4052 C.2     1  UNL1        0.2286
      4 C           2.6371   65.5877   69.3966 C.3     1  UNL1        0.1226
      5 C           3.8482   66.3310   68.8858 C.3     1  UNL1        0.1427
      6 N           5.0678   65.5703   69.1664 N.2     1  UNL1       -0.2039
      7 C           5.0417   64.2737   69.2132 C.2     1  UNL1        0.4013
      8 N           3.8525   63.6148   69.0520 N.2     1  UNL1       -0.1237
      9 C           3.7713   62.2901   68.6230 C.2     1  UNL1        0.3368
     10 C           2.5969   61.6831   68.5879 C.2     1  UNL1        0.2498
     11 O           1.4381   62.2989   68.9242 O.2     1  UNL1       -0.4604
@<TRIPOS>UNITY_ATOM_ATTR
8 1
charge 1
@<TRIPOS>BOND
     1     1     2    1
     2     2    11    1
     3     2     3    1
     4     3     8    2
     5     3     4    1
     6     4     5    1
     7     5     6    1
     8     6     7    2
     9     7     8    1
    10     8     9    1
    11     9    10    2
    12    10    11    1
#	Name:			ZINC21078781
#	Creating user name:	trannguyen
#	Creation time:		Thu Dec  1 16:45:04 2022


#	Modifying user name:	trannguyen
#	Modification time:	Thu Dec  1 16:45:04 2022

@<TRIPOS>MOLECULE
ZINC21078781
 12 13 0 0 0
SMALL
GASTEIGER

@<TRIPOS>ATOM
      1 C           5.1083   64.1335   69.5396 C.3     1  UNL1        0.0867
      2 C           5.2059   65.4516   68.7776 C.3     1  UNL1        0.1103
      3 N           4.8567   65.2498   67.3689 N.4     1  UNL1        0.2807
      4 C           5.5820   66.2581   66.5471 C.3     1  UNL1        0.1610
      5 C           4.0789   66.3769   66.7997 C.3     1  UNL1        0.1142
      6 C           3.5805   67.5363   67.6367 C.3     1  UNL1        0.0931
      7 C           2.5336   67.1405   68.6659 C.3     1  UNL1        0.1488
      8 O           2.0954   65.8007   68.4154 O.3     1  UNL1       -0.3488
      9 C           2.3188   64.9017   69.5046 C.3     1  UNL1        0.1680
     10 C           2.7823   63.5777   68.9593 C.2     1  UNL1        0.0013
     11 C           4.0467   63.2440   68.9624 C.2     1  UNL1       -0.0221
     12 H           4.7278   64.2382   67.3524 H       1  UNL1        0.2069
@<TRIPOS>UNITY_ATOM_ATTR
3 1
charge 1
@<TRIPOS>BOND
     1     1    11    1
     2     1     2    1
     3     2     3    1
     4     3     5    1
     5     3     4    1
     6     4     5    1
     7     5     6    1
     8     6     7    1
     9     7     8    1
    10     8     9    1
    11     9    10    1
    12    10    11    2
    13     3    12    1
#	Name:			ZINC21124623
#	Creating user name:	trannguyen
#	Creation time:		Thu Dec  1 16:45:04 2022


#	Modifying user name:	trannguyen
#	Modification time:	Thu Dec  1 16:45:04 2022

@<TRIPOS>MOLECULE
ZINC21124623
 36 39 0 0 0
SMALL
GASTEIGER

@<TRIPOS>ATOM
      1 N          -5.6921   61.6796   75.1610 N.ar    1  UNL1       -0.2285
      2 C          -4.5853   61.3691   74.4366 C.ar    1  UNL1        0.0981
      3 C          -4.0955   60.2021   74.9084 C.ar    1  UNL1        0.0255
      4 C          -4.9234   59.7816   75.9678 C.ar    1  UNL1        0.0992
      5 N          -5.8814   60.6724   76.1160 N.ar    1  UNL1       -0.1654
      6 C          -4.7466   58.5496   76.7758 C.ar    1  UNL1        0.0192
      7 C          -5.4267   57.3835   76.4302 C.ar    1  UNL1        0.0024
      8 C          -5.2556   56.2391   77.1821 C.ar    1  UNL1        0.0114
      9 C          -4.4174   56.2510   78.2839 C.ar    1  UNL1        0.0577
     10 C          -3.7436   57.4084   78.6344 C.ar    1  UNL1        0.0114
     11 C          -3.9043   58.5566   77.8860 C.ar    1  UNL1        0.0024
     12 CL         -4.2111   54.8098   79.2296 Cl      1  UNL1       -0.0822
     13 C          -8.0929   65.0474   74.6452 C.ar    1  UNL1        0.0001
     14 C          -8.6356   63.7841   74.4977 C.ar    1  UNL1        0.0015
     15 C          -7.8425   62.6662   74.6678 C.ar    1  UNL1        0.0191
     16 C          -6.4991   62.8117   74.9873 C.ar    1  UNL1        0.0828
     17 C          -5.9584   64.0816   75.1400 C.ar    1  UNL1        0.0191
     18 C          -6.7552   65.1958   74.9630 C.ar    1  UNL1        0.0015
     19 C          -2.8754   59.4809   74.3963 C.3     1  UNL1        0.1159
     20 C          -1.7894   60.4816   74.0959 C.2     1  UNL1        0.2425
     21 O          -1.1357   60.9569   75.0001 O.2     1  UNL1       -0.2732
     22 N          -1.5445   60.8484   72.8223 N.am    1  UNL1       -0.2343
     23 H          -2.0751   60.4625   72.0882 H       1  UNL1        0.1728
     24 N          -0.5349   61.7787   72.5430 N.am    1  UNL1       -0.2458
     25 H          -0.7226   62.7431   72.6074 H       1  UNL1        0.1718
     26 C           0.6932   61.3537   72.1861 C.2     1  UNL1        0.1473
     27 S           0.9506   59.7052   71.8025 S.2     1  UNL1       -0.0174
     28 N           1.7187   62.2265   72.1310 N.am    1  UNL1       -0.3147
     29 H           2.4000   62.2310   72.8417 H       1  UNL1        0.1485
     30 C           1.8198   63.1684   71.0135 C.3     1  UNL1        0.0937
     31 C           2.9379   62.7218   70.0695 C.3     1  UNL1        0.0541
     32 C           3.6200   63.9342   69.4897 C.ar    1  UNL1        0.0090
     33 C           4.9389   64.2469   69.4763 C.ar    1  UNL1        0.0027
     34 C           5.3412   65.4299   68.8854 C.ar    1  UNL1        0.0072
     35 C           4.4063   66.2369   68.3269 C.ar    1  UNL1        0.0351
     36 S           2.9007   65.3309   68.6418 S.2     1  UNL1       -0.0907
@<TRIPOS>BOND
     1    13    18   ar
     2    13    14   ar
     3    14    15   ar
     4    15    16   ar
     5    16    17   ar
     6    16     1    1
     7    17    18   ar
     8     1     5   ar
     9     1     2   ar
    10     2     3   ar
    11     3     4   ar
    12     3    19    1
    13     4     5   ar
    14     4     6    1
    15     6    11   ar
    16     6     7   ar
    17     7     8   ar
    18     8     9   ar
    19     9    10   ar
    20     9    12    1
    21    10    11   ar
    22    19    20    1
    23    20    21    2
    24    20    22   am
    25    22    24    1
    26    24    26    1
    27    26    27    2
    28    26    28    1
    29    28    30    1
    30    30    31    1
    31    31    32    1
    32    32    36   ar
    33    32    33   ar
    34    33    34   ar
    35    34    35   ar
    36    35    36   ar
    37    22    23    1
    38    24    25    1
    39    28    29    1
#	Name:			ZINC21263079
#	Creating user name:	trannguyen
#	Creation time:		Thu Dec  1 16:45:04 2022


#	Modifying user name:	trannguyen
#	Modification time:	Thu Dec  1 16:45:04 2022

@<TRIPOS>MOLECULE
ZINC21263079
 34 36 0 0 0
SMALL
GASTEIGER

@<TRIPOS>ATOM
      1 N           0.0120   60.0982   73.5972 N.am    1  UNL1       -0.2847
      2 C           0.7777   59.8002   74.6656 C.2     1  UNL1        0.1349
      3 S           0.7272   60.7941   76.0587 S.2     1  UNL1       -0.0186
      4 N           1.5831   58.7200   74.6373 N.am    1  UNL1       -0.3171
      5 H           1.9173   58.3775   73.7769 H       1  UNL1        0.1484
      6 C           0.9258   56.6251   78.4567 C.3     1  UNL1        0.0552
      7 C           1.6398   55.9795   77.2631 C.3     1  UNL1        0.0143
      8 C           1.2464   56.7061   75.9794 C.3     1  UNL1        0.0692
      9 C           1.9620   58.0537   75.8897 C.3     1  UNL1        0.0815
     10 C           3.4699   57.8040   75.8908 C.3     1  UNL1        0.0692
     11 C           3.8894   57.0925   77.1749 C.3     1  UNL1        0.0143
     12 N           3.0718   55.9350   77.4722 N.4     1  UNL1        0.2384
     13 C           3.8817   58.0901   78.3394 C.3     1  UNL1        0.0552
     14 C           5.3479   56.6183   76.9888 C.3     1  UNL1        0.0552
     15 C           1.1233   54.5275   77.1526 C.3     1  UNL1        0.0552
     16 H           3.4281   55.1696   76.8998 H       1  UNL1        0.2026
     17 H           3.1554   55.8464   78.4849 H       1  UNL1        0.2026
     18 C           0.3468   59.5505   72.2804 C.3     1  UNL1        0.1192
     19 C           1.1264   60.5731   71.4945 C.ar    1  UNL1       -0.0024
     20 C           1.0630   61.9090   71.8445 C.ar    1  UNL1       -0.0029
     21 C           1.7788   62.8468   71.1242 C.ar    1  UNL1       -0.0046
     22 C           2.5577   62.4489   70.0537 C.ar    1  UNL1       -0.0228
     23 C           2.6166   61.1140   69.7003 C.ar    1  UNL1       -0.0046
     24 C           1.9052   60.1753   70.4240 C.ar    1  UNL1       -0.0029
     25 C           3.3377   63.4715   69.2682 C.3     1  UNL1        0.0189
     26 C           4.7433   63.6041   69.8580 C.3     1  UNL1        0.0044
     27 C           2.6244   64.8231   69.3411 C.3     1  UNL1        0.0044
     28 C           3.4374   63.0255   67.8081 C.3     1  UNL1        0.0044
     29 C          -1.1551   60.9699   73.7529 C.3     1  UNL1        0.1221
     30 C          -2.4333   60.1410   73.6111 C.3     1  UNL1        0.1350
     31 C          -3.6665   60.9818   74.0097 C.3     1  UNL1        0.0339
     32 C          -4.5899   59.9751   74.7315 C.3     1  UNL1        0.0346
     33 C          -3.8053   58.6452   74.6837 C.3     1  UNL1        0.1422
     34 O          -2.4226   59.0373   74.5426 O.3     1  UNL1       -0.3545
@<TRIPOS>UNITY_ATOM_ATTR
12 1
charge 1
@<TRIPOS>BOND
     1     6     7    1
     2     7    12    1
     3     7     8    1
     4     7    15    1
     5     8     9    1
     6     9    10    1
     7     9     4    1
     8    10    11    1
     9    11    12    1
    10    11    13    1
    11    11    14    1
    12     4     2    1
    13     2     3    2
    14     2     1    1
    15     1    18    1
    16     1    29    1
    17    18    19    1
    18    19    24   ar
    19    19    20   ar
    20    20    21   ar
    21    21    22   ar
    22    22    23   ar
    23    22    25    1
    24    23    24   ar
    25    25    26    1
    26    25    27    1
    27    25    28    1
    28    29    30    1
    29    30    34    1
    30    30    31    1
    31    31    32    1
    32    32    33    1
    33    33    34    1
    34    12    16    1
    35    12    17    1
    36     4     5    1
#	Name:			ZINC21263947
#	Creating user name:	trannguyen
#	Creation time:		Thu Dec  1 16:45:04 2022


#	Modifying user name:	trannguyen
#	Modification time:	Thu Dec  1 16:45:04 2022

@<TRIPOS>MOLECULE
ZINC21263947
 38 40 0 0 0
SMALL
GASTEIGER

@<TRIPOS>ATOM
      1 N          -1.6299   60.3518   74.3203 N.am    1  UNL1       -0.2868
      2 C          -0.9040   60.0045   75.4015 C.2     1  UNL1        0.1348
      3 S          -1.6477   59.1746   76.7012 S.2     1  UNL1       -0.0186
      4 N           0.4072   60.3104   75.4594 N.am    1  UNL1       -0.3171
      5 H           0.7717   61.0246   74.8882 H       1  UNL1        0.1484
      6 C           2.2474   59.2559   79.3342 C.3     1  UNL1        0.0552
      7 C           3.0362   59.8484   78.1603 C.3     1  UNL1        0.0143
      8 C           2.0800   60.5783   77.2205 C.3     1  UNL1        0.0692
      9 C           1.2921   59.5786   76.3744 C.3     1  UNL1        0.0815
     10 C           2.2857   58.7505   75.5576 C.3     1  UNL1        0.0692
     11 C           3.2144   57.9789   76.4944 C.3     1  UNL1        0.0143
     12 N           3.8251   58.8331   77.4937 N.4     1  UNL1        0.2384
     13 C           4.3394   57.3654   75.6320 C.3     1  UNL1        0.0552
     14 C           2.4502   56.8193   77.1403 C.3     1  UNL1        0.0552
     15 C           4.0041   60.9008   78.7467 C.3     1  UNL1        0.0552
     16 H           4.1903   58.2192   78.2219 H       1  UNL1        0.2026
     17 H           4.4998   59.3769   76.9557 H       1  UNL1        0.2026
     18 C          -2.6035   61.4427   74.4113 C.3     1  UNL1        0.0988
     19 C          -3.9520   60.9696   73.8650 C.3     1  UNL1        0.0823
     20 C          -4.9395   60.8000   75.0212 C.3     1  UNL1        0.1073
     21 N          -6.2600   61.2994   74.6147 N.4     1  UNL1        0.2798
     22 C          -6.4031   62.7280   74.9307 C.3     1  UNL1        0.1380
     23 C          -7.7665   63.2200   74.4377 C.3     1  UNL1        0.2029
     24 O          -8.7975   62.4278   75.0332 O.3     1  UNL1       -0.3412
     25 C          -8.6892   61.0311   74.7455 C.3     1  UNL1        0.2029
     26 C          -7.3351   60.5168   75.2415 C.3     1  UNL1        0.1380
     27 H          -6.3372   61.1897   73.6035 H       1  UNL1        0.2069
     28 C          -1.4453   59.6385   73.0541 C.3     1  UNL1        0.1221
     29 C          -0.4637   60.3903   72.1924 C.ar    1  UNL1        0.0318
     30 C          -0.7568   61.6730   71.7701 C.ar    1  UNL1        0.0035
     31 C           0.1411   62.3648   70.9802 C.ar    1  UNL1        0.0368
     32 C           1.3402   61.7728   70.6091 C.ar    1  UNL1        0.1417
     33 C           1.6366   60.4862   71.0314 C.ar    1  UNL1        0.0735
     34 C           0.7361   59.7960   71.8285 C.ar    1  UNL1        0.1393
     35 O           1.0263   58.5365   72.2487 O.3     1  UNL1       -0.4716
     36 C           1.9035   57.7643   71.4264 C.3     1  UNL1        0.2525
     37 O           2.2235   62.4541   69.8328 O.3     1  UNL1       -0.4713
     38 C           2.1307   63.8800   69.8430 C.3     1  UNL1        0.2525
@<TRIPOS>UNITY_ATOM_ATTR
12 1
charge 1
21 1
charge 1
@<TRIPOS>BOND
     1     6     7    1
     2     7    12    1
     3     7     8    1
     4     7    15    1
     5     8     9    1
     6     9    10    1
     7     9     4    1
     8    10    11    1
     9    11    12    1
    10    11    13    1
    11    11    14    1
    12     4     2    1
    13     2     3    2
    14     2     1    1
    15     1    18    1
    16     1    28    1
    17    18    19    1
    18    19    20    1
    19    20    21    1
    20    21    26    1
    21    21    22    1
    22    22    23    1
    23    23    24    1
    24    24    25    1
    25    25    26    1
    26    28    29    1
    27    29    34   ar
    28    29    30   ar
    29    30    31   ar
    30    31    32   ar
    31    32    33   ar
    32    32    37    1
    33    33    34   ar
    34    34    35    1
    35    35    36    1
    36    37    38    1
    37    12    16    1
    38    12    17    1
    39     4     5    1
    40    21    27    1
#	Name:			ZINC21521946
#	Creating user name:	trannguyen
#	Creation time:		Thu Dec  1 16:45:04 2022


#	Modifying user name:	trannguyen
#	Modification time:	Thu Dec  1 16:45:04 2022

@<TRIPOS>MOLECULE
ZINC21521946
 29 32 0 0 0
SMALL
GASTEIGER

@<TRIPOS>ATOM
      1 C           0.1217   60.1476   73.1596 C.2     1  UNL1        0.2618
      2 O           1.1799   60.0124   73.7450 O.2     1  UNL1       -0.2686
      3 N           0.1027   60.2462   71.8156 N.am    1  UNL1       -0.2957
      4 H          -0.7535   60.3556   71.3421 H       1  UNL1        0.1501
      5 C          -3.1637   60.7795   74.6472 C.ar    1  UNL1        0.0367
      6 C          -2.1647   61.0742   73.7006 C.ar    1  UNL1        0.0246
      7 C          -1.1336   60.2031   73.9169 C.ar    1  UNL1        0.1108
      8 N          -1.4828   59.3834   74.9661 N.ar    1  UNL1       -0.3484
      9 C          -2.7127   59.7407   75.4099 C.ar    1  UNL1        0.0740
     10 H          -0.9299   58.6567   75.3339 H       1  UNL1        0.1661
     11 C          -5.9385   64.8277   75.5442 C.3     1  UNL1        0.0594
     12 C          -5.6786   63.3804   75.2145 C.ar    1  UNL1        0.0886
     13 N          -4.5301   62.7592   75.0915 N.ar    1  UNL1       -0.2426
     14 C          -4.4701   61.4722   74.7905 C.ar    1  UNL1        0.0894
     15 C          -5.6478   60.7978   74.6209 C.ar    1  UNL1        0.0557
     16 S          -6.8239   62.1119   74.9086 S.2     1  UNL1       -0.0702
     17 C           1.3562   60.1907   71.0594 C.3     1  UNL1        0.1166
     18 C           1.6996   61.5685   70.5543 C.ar    1  UNL1       -0.0026
     19 C           0.6757   62.4698   70.2689 C.ar    1  UNL1       -0.0026
     20 C           0.9516   63.7217   69.8118 C.ar    1  UNL1       -0.0002
     21 C           2.2881   64.1146   69.6237 C.ar    1  UNL1        0.0030
     22 C           2.6106   65.3981   69.1531 C.ar    1  UNL1        0.0369
     23 C           3.9204   65.7449   68.9819 C.ar    1  UNL1        0.1387
     24 C           4.9459   64.8366   69.2635 C.ar    1  UNL1        0.0369
     25 C           4.6667   63.5886   69.7260 C.ar    1  UNL1        0.0031
     26 C           3.3294   63.1978   69.9139 C.ar    1  UNL1       -0.0001
     27 C           3.0051   61.9139   70.3842 C.ar    1  UNL1       -0.0026
     28 O           4.2312   66.9869   68.5265 O.3     1  UNL1       -0.4714
     29 C           3.1744   67.7432   67.9319 C.3     1  UNL1        0.2525
@<TRIPOS>BOND
     1    11    12    1
     2    12    16   ar
     3    12    13   ar
     4    13    14   ar
     5    14    15   ar
     6    14     5    1
     7    15    16   ar
     8     5     9   ar
     9     5     6   ar
    10     6     7   ar
    11     7     8   ar
    12     7     1    1
    13     8     9   ar
    14     1     2    2
    15     1     3   am
    16     3    17    1
    17    17    18    1
    18    18    27   ar
    19    18    19   ar
    20    19    20   ar
    21    20    21   ar
    22    21    26   ar
    23    21    22   ar
    24    22    23   ar
    25    23    24   ar
    26    23    28    1
    27    24    25   ar
    28    25    26   ar
    29    26    27   ar
    30    28    29    1
    31     8    10    1
    32     3     4    1
#	Name:			ZINC21581575
#	Creating user name:	trannguyen
#	Creation time:		Thu Dec  1 16:45:04 2022


#	Modifying user name:	trannguyen
#	Modification time:	Thu Dec  1 16:45:04 2022

@<TRIPOS>MOLECULE
ZINC21581575
 30 33 0 0 0
SMALL
GASTEIGER

@<TRIPOS>ATOM
      1 C          -1.9846   60.6771   73.6470 C.ar    1  UNL1        0.0836
      2 C          -3.3290   61.0019   73.7076 C.ar    1  UNL1        0.0129
      3 C          -4.0290   60.5948   74.8243 C.ar    1  UNL1        0.0202
      4 C          -3.3409   59.8985   75.8140 C.ar    1  UNL1        0.0785
      5 S          -1.7291   59.8081   75.1829 S.2     1  UNL1       -0.0677
      6 N          -3.8250   59.3999   77.0083 N.pl3   1  UNL1       -0.2977
      7 C          -3.0098   59.8619   78.1412 C.3     1  UNL1        0.1234
      8 C          -3.6148   59.3367   79.4459 C.3     1  UNL1        0.1636
      9 O          -3.6994   57.9103   79.3860 O.3     1  UNL1       -0.3501
     10 C          -4.4867   57.4257   78.2947 C.3     1  UNL1        0.1636
     11 C          -3.8906   57.9315   76.9783 C.3     1  UNL1        0.1234
     12 C          -5.4735   60.8955   74.9693 C.ar    1  UNL1        0.0017
     13 C          -6.4069   59.8601   74.9731 C.ar    1  UNL1        0.0001
     14 C          -7.7495   60.1457   75.1145 C.ar    1  UNL1        0.0000
     15 C          -8.1709   61.4573   75.2404 C.ar    1  UNL1        0.0000
     16 C          -7.2498   62.4894   75.2311 C.ar    1  UNL1        0.0000
     17 C          -5.9040   62.2155   75.0965 C.ar    1  UNL1        0.0001
     18 N          -0.8429   62.2429   72.2391 N.2     1  UNL1       -0.1845
     19 C          -1.0464   60.9675   72.6246 C.2     1  UNL1        0.2295
     20 O          -0.4280   60.0640   72.0910 O.2     1  UNL1       -0.4916
     21 H           0.1921   60.2559   71.4153 H       1  UNL1        0.2938
     22 C           2.1319   62.8427   69.5310 C.ar    1  UNL1        0.1612
     23 N           0.9608   63.3845   69.2527 N.ar    1  UNL1       -0.1329
     24 N          -0.0918   63.2226   70.1236 N.ar    1  UNL1       -0.1204
     25 C           0.0738   62.5274   71.2315 C.ar    1  UNL1        0.2190
     26 S           1.7912   62.0549   71.0975 S.2     1  UNL1       -0.0199
     27 S           3.6320   62.8904   68.6079 S.3     1  UNL1       -0.0818
     28 C           4.7524   63.8733   69.6420 C.3     1  UNL1        0.0901
     29 C           4.3947   66.1746   68.9089 C.2     1  UNL1       -0.0040
     30 C           5.1654   65.1153   68.8950 C.2     1  UNL1       -0.0141
@<TRIPOS>BOND
     1    29    30    2
     2    30    28    1
     3    28    27    1
     4    27    22    1
     5    22    26   ar
     6    22    23   ar
     7    23    24   ar
     8    24    25   ar
     9    25    26   ar
    10    25    18    1
    11    18    19    2
    12    19    20    1
    13    19     1    1
    14     1     5   ar
    15     1     2   ar
    16     2     3   ar
    17     3     4   ar
    18     3    12    1
    19     4     5   ar
    20     4     6    1
    21     6    11    1
    22     6     7    1
    23     7     8    1
    24     8     9    1
    25     9    10    1
    26    10    11    1
    27    12    17   ar
    28    12    13   ar
    29    13    14   ar
    30    14    15   ar
    31    15    16   ar
    32    16    17   ar
    33    20    21    1
#	Name:			ZINC21597376
#	Creating user name:	trannguyen
#	Creation time:		Thu Dec  1 16:45:04 2022


#	Modifying user name:	trannguyen
#	Modification time:	Thu Dec  1 16:45:04 2022

@<TRIPOS>MOLECULE
ZINC21597376
 28 31 0 0 0
SMALL
GASTEIGER

@<TRIPOS>ATOM
      1 C          -0.6293   60.7358   72.6167 C.ar    1  UNL1        0.0858
      2 C          -0.5416   61.9163   71.8713 C.ar    1  UNL1        0.0258
      3 C           0.4359   62.0290   70.8893 C.ar    1  UNL1        0.0816
      4 C           1.3051   60.9304   70.6895 C.ar    1  UNL1        0.0626
      5 C           2.3829   60.6868   69.8129 C.ar    1  UNL1        0.1234
      6 N           2.8471   59.4922   70.0470 N.ar    1  UNL1       -0.1664
      7 N           2.1114   58.8922   71.0758 N.ar    1  UNL1       -0.2360
      8 C           1.1478   59.7777   71.4847 C.ar    1  UNL1        0.1610
      9 N           0.2011   59.7270   72.4103 N.ar    1  UNL1       -0.2267
     10 C          -5.1225   60.7018   75.0487 C.3     1  UNL1        0.0725
     11 C          -3.6560   60.6054   74.7157 C.ar    1  UNL1        0.1229
     12 C          -3.1151   60.8227   73.5054 C.ar    1  UNL1        0.0371
     13 C          -1.6709   60.6150   73.6641 C.ar    1  UNL1        0.0507
     14 C          -1.4866   60.2895   74.9711 C.ar    1  UNL1        0.1242
     15 O          -2.6800   60.2890   75.5803 O.2     1  UNL1       -0.4620
     16 C          -0.1638   59.9812   75.6242 C.3     1  UNL1        0.0725
     17 C           2.3328   57.5506   71.6210 C.3     1  UNL1        0.1069
     18 C           2.3534   57.6181   73.1493 C.3     1  UNL1        0.0264
     19 C           1.2044   56.6228   71.1664 C.3     1  UNL1        0.0264
     20 C           0.5630   63.2581   70.0789 C.2     1  UNL1        0.3415
     21 O          -0.2018   63.4594   69.1569 O.2     1  UNL1       -0.2449
     22 O           1.5269   64.1554   70.3626 O.3     1  UNL1       -0.4428
     23 C           2.6761   64.1911   69.4758 C.3     1  UNL1        0.2380
     24 C           3.1037   65.6432   69.2531 C.3     1  UNL1        0.1589
     25 C           4.1273   65.7306   68.0933 C.3     1  UNL1        0.0360
     26 C           3.9201   67.1975   67.6271 C.3     1  UNL1        0.0347
     27 C           2.4089   67.4062   67.8640 C.3     1  UNL1        0.1423
     28 O           1.9828   66.4328   68.8245 O.3     1  UNL1       -0.3524
@<TRIPOS>BOND
     1    10    11    1
     2    11    15   ar
     3    11    12   ar
     4    12    13   ar
     5    13    14   ar
     6    13     1    1
     7    14    15   ar
     8    14    16    1
     9     1     9   ar
    10     1     2   ar
    11     2     3   ar
    12     3     4   ar
    13     3    20    1
    14     4     8   ar
    15     4     5   ar
    16     5     6   ar
    17     6     7   ar
    18     7     8   ar
    19     7    17    1
    20     8     9   ar
    21    17    18    1
    22    17    19    1
    23    20    21    2
    24    20    22    1
    25    22    23    1
    26    23    24    1
    27    24    28    1
    28    24    25    1
    29    25    26    1
    30    26    27    1
    31    27    28    1
#	Name:			ZINC21644767
#	Creating user name:	trannguyen
#	Creation time:		Thu Dec  1 16:45:04 2022


#	Modifying user name:	trannguyen
#	Modification time:	Thu Dec  1 16:45:04 2022

@<TRIPOS>MOLECULE
ZINC21644767
 39 44 0 0 0
SMALL
GASTEIGER

@<TRIPOS>ATOM
      1 C          -4.4792   59.8499   75.6070 C.ar    1  UNL1        0.0001
      2 C          -3.5682   59.3602   76.5347 C.ar    1  UNL1        0.0015
      3 C          -2.2180   59.3719   76.2660 C.ar    1  UNL1        0.0172
      4 C          -1.7579   59.8788   75.0537 C.ar    1  UNL1        0.0602
      5 C          -2.6835   60.3747   74.1149 C.ar    1  UNL1        0.0174
      6 C          -4.0525   60.3517   74.4120 C.ar    1  UNL1        0.0015
      7 C          -1.9389   60.8172   72.9949 C.ar    1  UNL1        0.0233
      8 C          -0.6248   60.5936   73.2573 C.ar    1  UNL1        0.1141
      9 N          -0.5041   60.0173   74.5070 N.ar    1  UNL1       -0.3182
     10 C           0.4910   60.9088   72.3526 C.2     1  UNL1        0.2618
     11 O           0.8929   60.0708   71.5677 O.2     1  UNL1       -0.2686
     12 N           1.0682   62.1260   72.3929 N.am    1  UNL1       -0.2993
     13 H           0.7852   62.7827   73.0696 H       1  UNL1        0.1498
     14 C           2.1166   62.4719   71.4299 C.3     1  UNL1        0.0945
     15 C           1.6434   63.6362   70.5572 C.3     1  UNL1        0.0491
     16 C           2.5041   63.7209   69.3231 C.ar    1  UNL1       -0.0021
     17 C           2.8739   62.6984   68.5358 C.ar    1  UNL1        0.0681
     18 N           3.6499   63.1586   67.5071 N.ar    1  UNL1       -0.3523
     19 C           3.8067   64.5224   67.6128 C.ar    1  UNL1        0.0563
     20 C           3.0986   64.9341   68.7569 C.ar    1  UNL1        0.0131
     21 C           3.0804   66.2827   69.1169 C.ar    1  UNL1        0.0012
     22 C           3.7513   67.1974   68.3549 C.ar    1  UNL1        0.0001
     23 C           4.4515   66.7964   67.2258 C.ar    1  UNL1        0.0015
     24 C           4.4821   65.4706   66.8517 C.ar    1  UNL1        0.0170
     25 H           4.0382   62.5980   66.7970 H       1  UNL1        0.1660
     26 C           0.7535   59.6218   75.1460 C.3     1  UNL1        0.1612
     27 C           0.6597   59.8691   76.6530 C.3     1  UNL1        0.0787
     28 C           1.2065   61.2613   76.9763 C.3     1  UNL1        0.0572
     29 C           1.1292   61.4965   78.4874 C.3     1  UNL1        0.0120
     30 C           1.9175   60.3992   79.2077 C.3     1  UNL1        0.0611
     31 C           1.3501   59.0318   78.8198 C.3     1  UNL1        0.1055
     32 N           1.4475   58.8549   77.3651 N.4     1  UNL1        0.2769
     33 H           2.4251   58.9787   77.1014 H       1  UNL1        0.2069
     34 C           1.0402   57.4996   76.9713 C.3     1  UNL1        0.1391
     35 C           1.5887   56.5030   77.9598 C.ar    1  UNL1        0.0621
     36 C           2.8692   56.0975   78.1417 C.ar    1  UNL1        0.0084
     37 C           3.1432   55.1616   79.1214 C.ar    1  UNL1        0.0074
     38 C           2.1231   54.6771   79.8712 C.ar    1  UNL1        0.0353
     39 S           0.7216   55.5561   79.2002 S.2     1  UNL1       -0.0850
@<TRIPOS>UNITY_ATOM_ATTR
32 1
charge 1
@<TRIPOS>BOND
     1     1     6   ar
     2     1     2   ar
     3     2     3   ar
     4     3     4   ar
     5     4     9   ar
     6     4     5   ar
     7     5     6   ar
     8     5     7   ar
     9     7     8   ar
    10     8     9   ar
    11     8    10    1
    12     9    26    1
    13    26    27    1
    14    27    32    1
    15    27    28    1
    16    28    29    1
    17    29    30    1
    18    30    31    1
    19    31    32    1
    20    32    34    1
    21    34    35    1
    22    35    39   ar
    23    35    36   ar
    24    36    37   ar
    25    37    38   ar
    26    38    39   ar
    27    10    11    2
    28    10    12   am
    29    12    14    1
    30    14    15    1
    31    15    16    1
    32    16    20   ar
    33    16    17   ar
    34    17    18   ar
    35    18    19   ar
    36    19    24   ar
    37    19    20   ar
    38    20    21   ar
    39    21    22   ar
    40    22    23   ar
    41    23    24   ar
    42    32    33    1
    43    12    13    1
    44    18    25    1
#	Name:			ZINC21800292
#	Creating user name:	trannguyen
#	Creation time:		Thu Dec  1 16:45:04 2022


#	Modifying user name:	trannguyen
#	Modification time:	Thu Dec  1 16:45:04 2022

@<TRIPOS>MOLECULE
ZINC21800292
 22 24 0 0 0
SMALL
GASTEIGER

@<TRIPOS>ATOM
      1 O           1.8365   63.2370   68.8079 O.3     1  UNL1       -0.4733
      2 C           3.0515   63.9392   68.5378 C.3     1  UNL1        0.2142
      3 C           3.8079   64.1170   69.8263 C.3     1  UNL1        0.0495
      4 C           5.3185   64.0188   69.5301 C.3     1  UNL1        0.0039
      5 C           5.8558   65.2603   68.9852 C.3     1  UNL1        0.0003
      6 C           5.2077   65.6454   67.6396 C.3     1  UNL1        0.0060
      7 C           3.8763   66.2892   67.9175 C.3     1  UNL1        0.0585
      8 C           2.7117   65.2820   67.8635 C.3     1  UNL1        0.0900
      9 N           1.5461   65.8692   68.5376 N.4     1  UNL1        0.2307
     10 H           1.7733   66.0478   69.5159 H       1  UNL1        0.2004
     11 H           0.7601   65.2213   68.4840 H       1  UNL1        0.2004
     12 H           1.2954   66.7464   68.0812 H       1  UNL1        0.2004
     13 C          -0.5656   60.6895   72.4034 C.ar    1  UNL1        0.0000
     14 C          -0.6969   61.9783   71.8900 C.ar    1  UNL1        0.0001
     15 C           0.1114   62.4187   70.8869 C.ar    1  UNL1        0.0030
     16 C           1.0936   61.5645   70.3602 C.ar    1  UNL1        0.0340
     17 C           1.2276   60.2539   70.8818 C.ar    1  UNL1        0.0029
     18 C           0.3748   59.8341   71.9171 C.ar    1  UNL1        0.0001
     19 C           2.2100   59.3988   70.3541 C.ar    1  UNL1        0.0002
     20 C           3.0196   59.8371   69.3507 C.ar    1  UNL1        0.0031
     21 C           2.8890   61.1222   68.8321 C.ar    1  UNL1        0.0369
     22 C           1.9492   61.9851   69.3218 C.ar    1  UNL1        0.1386
@<TRIPOS>UNITY_ATOM_ATTR
9 1
charge 1
@<TRIPOS>BOND
     1    13    18   ar
     2    13    14   ar
     3    14    15   ar
     4    15    16   ar
     5    16    22   ar
     6    16    17   ar
     7    17    18   ar
     8    17    19   ar
     9    19    20   ar
    10    20    21   ar
    11    21    22   ar
    12    22     1    1
    13     1     2    1
    14     2     8    1
    15     2     3    1
    16     3     4    1
    17     4     5    1
    18     5     6    1
    19     6     7    1
    20     7     8    1
    21     8     9    1
    22     9    10    1
    23     9    11    1
    24     9    12    1
#	Name:			ZINC22016915
#	Creating user name:	trannguyen
#	Creation time:		Thu Dec  1 16:45:04 2022


#	Modifying user name:	trannguyen
#	Modification time:	Thu Dec  1 16:45:04 2022

@<TRIPOS>MOLECULE
ZINC22016915
 29 32 0 0 0
SMALL
GASTEIGER

@<TRIPOS>ATOM
      1 N           2.1951   61.0261   70.4994 N.4     1  UNL1        0.2844
      2 C           1.0215   61.8929   70.3236 C.3     1  UNL1        0.1277
      3 C           0.1953   61.8960   71.6119 C.3     1  UNL1        0.1526
      4 N          -0.2125   60.5210   71.9326 N.pl3   1  UNL1       -0.2973
      5 C           0.9613   59.6543   72.1085 C.3     1  UNL1        0.1526
      6 C           1.7874   59.6511   70.8201 C.3     1  UNL1        0.1277
      7 H           2.7368   61.3853   71.2854 H       1  UNL1        0.2073
      8 C          -1.0313   60.4924   73.0670 C.ar    1  UNL1        0.0483
      9 C          -2.3369   60.9599   72.9932 C.ar    1  UNL1        0.0176
     10 C          -3.1446   60.9310   74.1132 C.ar    1  UNL1        0.0379
     11 C          -2.6521   60.4349   75.3112 C.ar    1  UNL1        0.1338
     12 C          -1.3482   59.9682   75.3859 C.ar    1  UNL1        0.0379
     13 C          -0.5389   59.9972   74.2671 C.ar    1  UNL1        0.0176
     14 O          -3.4484   60.4064   76.4134 O.3     1  UNL1       -0.5055
     15 H          -4.3293   60.7216   76.3633 H       1  UNL1        0.2922
     16 C           3.0548   61.0562   69.3086 C.3     1  UNL1        0.1737
     17 C           4.0983   64.4567   68.4208 C.ar    1  UNL1        0.1229
     18 C           3.3199   63.3037   68.1209 C.ar    1  UNL1        0.0640
     19 C           3.6096   62.4452   69.1246 C.ar    1  UNL1        0.2093
     20 O           4.4906   63.0673   69.9211 O.2     1  UNL1       -0.3518
     21 N           4.7523   64.1779   69.5214 N.ar    1  UNL1       -0.0771
     22 C           4.2807   68.0710   66.1852 C.ar    1  UNL1        0.1387
     23 C           3.3601   67.9397   67.2165 C.ar    1  UNL1        0.0370
     24 C           3.2985   66.7692   67.9426 C.ar    1  UNL1        0.0047
     25 C           4.1618   65.7173   67.6409 C.ar    1  UNL1        0.0211
     26 C           5.0887   65.8540   66.6090 C.ar    1  UNL1        0.0047
     27 C           5.1422   67.0248   65.8827 C.ar    1  UNL1        0.0370
     28 C           4.8791   69.1446   64.1508 C.3     1  UNL1        0.2525
     29 O           4.3389   69.2252   65.4712 O.3     1  UNL1       -0.4714
@<TRIPOS>UNITY_ATOM_ATTR
1 1
charge 1
@<TRIPOS>BOND
     1    28    29    1
     2    29    22    1
     3    22    27   ar
     4    22    23   ar
     5    23    24   ar
     6    24    25   ar
     7    25    26   ar
     8    25    17    1
     9    26    27   ar
    10    17    21   ar
    11    17    18   ar
    12    18    19   ar
    13    19    20   ar
    14    19    16    1
    15    20    21   ar
    16    16     1    1
    17     1     6    1
    18     1     2    1
    19     2     3    1
    20     3     4    1
    21     4     5    1
    22     4     8    1
    23     5     6    1
    24     8    13   ar
    25     8     9   ar
    26     9    10   ar
    27    10    11   ar
    28    11    12   ar
    29    11    14    1
    30    12    13   ar
    31     1     7    1
    32    14    15    1
#	Name:			ZINC22018417
#	Creating user name:	trannguyen
#	Creation time:		Thu Dec  1 16:45:04 2022


#	Modifying user name:	trannguyen
#	Modification time:	Thu Dec  1 16:45:04 2022

@<TRIPOS>MOLECULE
ZINC22018417
 13 13 0 0 0
SMALL
GASTEIGER

@<TRIPOS>ATOM
      1 C           4.5126   66.0271   68.3618 C.ar    1  UNL1        0.0545
      2 C           3.6134   66.9933   68.7023 C.ar    1  UNL1        0.0131
      3 C           3.3280   67.9897   67.7859 C.ar    1  UNL1        0.0089
      4 C           3.9485   67.9749   66.5825 C.ar    1  UNL1        0.0626
      5 S           4.9711   66.5171   66.7075 S.2     1  UNL1       -0.0793
      6 S           5.0719   64.6490   69.3065 S.3     1  UNL1       -0.1072
      7 C           3.3860   62.8895   68.0640 C.3     1  UNL1        0.0129
      8 C           3.6169   63.5711   69.4142 C.3     1  UNL1        0.0627
      9 C           3.8074   68.9374   65.4316 C.3     1  UNL1        0.1398
     10 N           4.2006   68.2697   64.1837 N.4     1  UNL1        0.2888
     11 C           3.2245   68.5297   63.1171 C.3     1  UNL1        0.1678
     12 C           5.5509   68.6762   63.7720 C.3     1  UNL1        0.1678
     13 H           4.2151   67.2647   64.3572 H       1  UNL1        0.2076
@<TRIPOS>UNITY_ATOM_ATTR
10 1
charge 1
@<TRIPOS>BOND
     1     7     8    1
     2     8     6    1
     3     6     1    1
     4     1     5   ar
     5     1     2   ar
     6     2     3   ar
     7     3     4   ar
     8     4     5   ar
     9     4     9    1
    10     9    10    1
    11    10    11    1
    12    10    12    1
    13    10    13    1
#	Name:			ZINC22034980
#	Creating user name:	trannguyen
#	Creation time:		Thu Dec  1 16:45:04 2022


#	Modifying user name:	trannguyen
#	Modification time:	Thu Dec  1 16:45:04 2022

@<TRIPOS>MOLECULE
ZINC22034980
 13 17 0 0 0
SMALL
GASTEIGER

@<TRIPOS>ATOM
      1 C           2.6397   65.2489   68.6392 C.3     1  UNL1        0.0671
      2 C           3.6803   64.8784   69.6816 C.3     1  UNL1        0.1103
      3 C           2.3869   64.0840   69.6185 C.3     1  UNL1        0.0673
      4 C           2.7820   62.6206   69.2983 C.3     1  UNL1        0.1174
      5 C           3.5288   62.1977   68.0727 C.3     1  UNL1        0.1611
      6 N           4.2390   62.5242   69.2966 N.4     1  UNL1        0.2807
      7 C           4.7925   63.8584   69.4609 C.3     1  UNL1        0.1114
      8 C           1.7695   61.9128   70.2113 C.3     1  UNL1        0.1647
      9 C           0.4882   62.7732   70.0188 C.3     1  UNL1        0.1170
     10 N           1.3007   63.8891   70.5886 N.4     1  UNL1        0.2727
     11 C           1.6936   62.7789   71.5135 C.3     1  UNL1        0.1170
     12 H           4.9781   62.0171   69.7834 H       1  UNL1        0.2069
     13 H           0.9880   64.8157   70.8784 H       1  UNL1        0.2064
@<TRIPOS>UNITY_ATOM_ATTR
6 1
charge 1
10 1
charge 1
@<TRIPOS>BOND
     1     1     3    1
     2     1     2    1
     3     2     7    1
     4     2     3    1
     5     3    10    1
     6     3     4    1
     7     4     6    1
     8     4     5    1
     9     4     8    1
    10     5     6    1
    11     6     7    1
    12     8    11    1
    13     8     9    1
    14     9    10    1
    15    10    11    1
    16     6    12    1
    17    10    13    1
#	Name:			ZINC22040208
#	Creating user name:	trannguyen
#	Creation time:		Thu Dec  1 16:45:04 2022


#	Modifying user name:	trannguyen
#	Modification time:	Thu Dec  1 16:45:04 2022

@<TRIPOS>MOLECULE
ZINC22040208
 42 46 0 0 0
SMALL
GASTEIGER

@<TRIPOS>ATOM
      1 C          -2.4021   57.7105   77.0683 C.3     1  UNL1        0.1041
      2 C          -3.7443   57.9537   76.3669 C.3     1  UNL1        0.0754
      3 C          -3.7786   57.1263   75.0758 C.3     1  UNL1        0.0675
      4 C          -3.6047   55.6471   75.4316 C.3     1  UNL1        0.1056
      5 N          -3.4611   55.5102   76.8876 N.4     1  UNL1        0.2767
      6 C          -2.2635   56.2157   77.3714 C.3     1  UNL1        0.1132
      7 C          -4.6673   55.9821   77.5817 C.3     1  UNL1        0.1146
      8 C          -4.8720   57.4709   77.2877 C.3     1  UNL1        0.1370
      9 H          -3.3448   54.5190   77.0982 H       1  UNL1        0.2067
     10 C          -6.2012   57.6729   76.6069 C.2     1  UNL1        0.2249
     11 O          -6.5723   58.7917   76.3211 O.2     1  UNL1       -0.2751
     12 N          -6.9777   56.6105   76.3159 N.am    1  UNL1       -0.3286
     13 H          -6.6765   55.7023   76.5478 H       1  UNL1        0.1449
     14 H          -7.8461   56.7425   75.8713 H       1  UNL1        0.1449
     15 N          -1.3039   58.1389   76.1918 N.4     1  UNL1        0.2578
     16 H          -0.4303   57.7356   76.5302 H       1  UNL1        0.2039
     17 H          -1.5013   57.8193   75.2435 H       1  UNL1        0.2039
     18 C          -1.1829   59.6029   76.1766 C.3     1  UNL1        0.1328
     19 C          -0.1568   60.2472   72.5917 C.ar    1  UNL1       -0.0039
     20 C          -1.2336   61.0053   72.1284 C.ar    1  UNL1        0.0028
     21 C          -2.2777   61.3060   72.9763 C.ar    1  UNL1        0.0368
     22 C          -2.2618   60.8519   74.2887 C.ar    1  UNL1        0.1402
     23 C          -1.1952   60.0932   74.7517 C.ar    1  UNL1        0.0664
     24 C          -0.1469   59.7882   73.9095 C.ar    1  UNL1        0.0041
     25 C           1.5502   58.5380   71.6717 C.3     1  UNL1        0.0310
     26 C           0.9677   59.9277   71.6877 C.2     1  UNL1       -0.0219
     27 C           1.4642   60.8639   70.8906 C.2     1  UNL1       -0.0046
     28 O          -3.2930   61.1504   75.1215 O.3     1  UNL1       -0.4715
     29 C          -4.6127   61.0448   74.5838 C.3     1  UNL1        0.2525
     30 C          -1.0242   55.6643   76.6636 C.3     1  UNL1        0.0997
     31 C           0.2052   56.0021   77.4671 C.ar    1  UNL1       -0.0127
     32 C           1.4392   56.0676   76.8477 C.ar    1  UNL1       -0.0038
     33 C           2.5663   56.3817   77.5839 C.ar    1  UNL1       -0.0003
     34 C           2.4607   56.6211   78.9413 C.ar    1  UNL1       -0.0000
     35 C           1.2273   56.5509   79.5615 C.ar    1  UNL1       -0.0003
     36 C           0.0996   56.2410   78.8245 C.ar    1  UNL1       -0.0038
     37 C          -1.1441   54.1676   76.5341 C.ar    1  UNL1       -0.0127
     38 C          -1.3512   53.3909   77.6586 C.ar    1  UNL1       -0.0038
     39 C          -1.4656   52.0185   77.5393 C.ar    1  UNL1       -0.0003
     40 C          -1.3632   51.4219   76.2964 C.ar    1  UNL1       -0.0000
     41 C          -1.1513   52.1982   75.1725 C.ar    1  UNL1       -0.0003
     42 C          -1.0413   53.5710   75.2913 C.ar    1  UNL1       -0.0038
@<TRIPOS>UNITY_ATOM_ATTR
5 1
charge 1
15 1
charge 1
@<TRIPOS>BOND
     1    25    26    1
     2    26    27    2
     3    26    19    1
     4    19    24   ar
     5    19    20   ar
     6    20    21   ar
     7    21    22   ar
     8    22    23   ar
     9    22    28    1
    10    23    24   ar
    11    23    18    1
    12    18    15    1
    13    15     1    1
    14     1     6    1
    15     1     2    1
    16     2     8    1
    17     2     3    1
    18     3     4    1
    19     4     5    1
    20     5     6    1
    21     5     7    1
    22     6    30    1
    23    30    31    1
    24    30    37    1
    25    31    36   ar
    26    31    32   ar
    27    32    33   ar
    28    33    34   ar
    29    34    35   ar
    30    35    36   ar
    31    37    42   ar
    32    37    38   ar
    33    38    39   ar
    34    39    40   ar
    35    40    41   ar
    36    41    42   ar
    37     7     8    1
    38     8    10    1
    39    10    11    2
    40    10    12   am
    41    28    29    1
    42    15    16    1
    43    15    17    1
    44     5     9    1
    45    12    13    1
    46    12    14    1
#	Name:			ZINC22127248
#	Creating user name:	trannguyen
#	Creation time:		Thu Dec  1 16:45:04 2022


#	Modifying user name:	trannguyen
#	Modification time:	Thu Dec  1 16:45:04 2022

@<TRIPOS>MOLECULE
ZINC22127248
 29 31 0 0 0
SMALL
GASTEIGER

@<TRIPOS>ATOM
      1 C          -4.3597   60.0362   75.8873 C.3     1  UNL1        0.1016
      2 N          -5.2718   59.0121   76.4136 N.4     1  UNL1        0.2870
      3 C          -6.6272   59.1857   75.8727 C.3     1  UNL1        0.1678
      4 C          -7.5621   58.1517   76.5045 C.3     1  UNL1        0.1644
      5 N          -7.0554   56.8010   76.2244 N.4     1  UNL1        0.2635
      6 C          -5.7001   56.6274   76.7654 C.3     1  UNL1        0.1644
      7 C          -4.7651   57.6614   76.1336 C.3     1  UNL1        0.1678
      8 H          -5.3198   59.1266   77.4260 H       1  UNL1        0.2077
      9 H          -7.0335   56.6551   75.2151 H       1  UNL1        0.2040
     10 H          -7.6734   56.1222   76.6689 H       1  UNL1        0.2040
     11 C          -5.9729   63.9167   76.6656 C.ar    1  UNL1        0.0479
     12 C          -5.7509   63.0322   77.7134 C.ar    1  UNL1        0.0144
     13 C          -5.2294   61.7791   77.4584 C.ar    1  UNL1        0.0028
     14 C          -4.9286   61.4045   76.1617 C.ar    1  UNL1        0.0312
     15 C          -5.1432   62.2846   75.1169 C.ar    1  UNL1        0.0028
     16 C          -5.6696   63.5372   75.3642 C.ar    1  UNL1        0.0144
     17 C          -7.5796   65.3474   77.8967 C.3     1  UNL1        0.1122
     18 N          -6.4997   65.1851   76.9200 N.pl3   1  UNL1       -0.3041
     19 C          -5.9724   66.3531   76.2102 C.3     1  UNL1        0.1122
     20 C          -3.0172   59.9064   76.5594 C.ar    1  UNL1        0.0350
     21 C          -2.9433   59.7405   77.9300 C.ar    1  UNL1        0.0015
     22 C          -1.7120   59.6210   78.5464 C.ar    1  UNL1       -0.0001
     23 C          -0.5539   59.6731   77.7930 C.ar    1  UNL1       -0.0001
     24 C          -0.6278   59.8346   76.4223 C.ar    1  UNL1        0.0037
     25 C          -1.8595   59.9537   75.8056 C.ar    1  UNL1        0.0731
     26 C          -1.9400   60.1345   74.3117 C.3     1  UNL1        0.4185
     27 F          -2.8895   59.2520   73.7856 F       1  UNL1       -0.1659
     28 F          -2.3148   61.4505   74.0207 F       1  UNL1       -0.1659
     29 F          -0.6901   59.8687   73.7419 F       1  UNL1       -0.1659
@<TRIPOS>UNITY_ATOM_ATTR
2 1
charge 1
5 1
charge 1
@<TRIPOS>BOND
     1    17    18    1
     2    18    19    1
     3    18    11    1
     4    11    16   ar
     5    11    12   ar
     6    12    13   ar
     7    13    14   ar
     8    14    15   ar
     9    14     1    1
    10    15    16   ar
    11     1    20    1
    12     1     2    1
    13    20    25   ar
    14    20    21   ar
    15    21    22   ar
    16    22    23   ar
    17    23    24   ar
    18    24    25   ar
    19    25    26    1
    20    26    27    1
    21    26    28    1
    22    26    29    1
    23     2     7    1
    24     2     3    1
    25     3     4    1
    26     4     5    1
    27     5     6    1
    28     6     7    1
    29     2     8    1
    30     5     9    1
    31     5    10    1
#	Name:			ZINC22183336
#	Creating user name:	trannguyen
#	Creation time:		Thu Dec  1 16:45:04 2022


#	Modifying user name:	trannguyen
#	Modification time:	Thu Dec  1 16:45:04 2022

@<TRIPOS>MOLECULE
ZINC22183336
 17 18 0 0 0
SMALL
GASTEIGER

@<TRIPOS>ATOM
      1 C           0.3198   59.1725   76.2294 C.3     1  UNL1        0.1030
      2 C          -0.8729   59.6843   75.4635 C.2     1  UNL1        0.1871
      3 C          -2.0841   59.5812   75.9780 C.3     1  UNL1        0.0965
      4 C          -3.2927   60.0556   75.2187 C.3     1  UNL1        0.0322
      5 C          -2.9062   61.1071   74.2108 C.2     1  UNL1        0.0184
      6 C          -1.6702   61.1532   73.7392 C.ar    1  UNL1        0.1251
      7 N          -0.7012   60.2663   74.2130 N.ar    1  UNL1       -0.1441
      8 C           0.3927   60.0313   73.4656 C.ar    1  UNL1        0.4255
      9 O           1.2392   59.2422   73.8452 O.2     1  UNL1       -0.2129
     10 C           0.5495   60.7112   72.2337 C.ar    1  UNL1        0.0905
     11 C          -0.3005   61.7029   71.8884 C.ar    1  UNL1       -0.0991
     12 N          -1.2852   62.0820   72.7700 N.ar    1  UNL1       -0.6039
     13 C          -4.3058   60.6466   76.2011 C.3     1  UNL1        0.0050
     14 C          -3.9283   58.8690   74.4913 C.3     1  UNL1        0.0050
     15 C          -0.1671   62.3903   70.5539 C.3     1  UNL1        0.1454
     16 O           0.6891   63.5267   70.6870 O.3     1  UNL1       -0.3483
     17 C           1.9388   63.3957   70.0064 C.3     1  UNL1        0.1745
@<TRIPOS>UNITY_ATOM_ATTR
7 1
charge 1
12 1
charge -1
@<TRIPOS>BOND
     1     1     2    1
     2     2     7    2
     3     2     3    1
     4     3     4    1
     5     4     5    1
     6     4    13    1
     7     4    14    1
     8     5     6    2
     9     6    12   ar
    10     6     7   ar
    11     7     8   ar
    12     8     9    2
    13     8    10   ar
    14    10    11   ar
    15    11    12   ar
    16    11    15    1
    17    15    16    1
    18    16    17    1
#	Name:			ZINC22446174
#	Creating user name:	trannguyen
#	Creation time:		Thu Dec  1 16:45:04 2022


#	Modifying user name:	trannguyen
#	Modification time:	Thu Dec  1 16:45:04 2022

@<TRIPOS>MOLECULE
ZINC22446174
 39 43 0 0 0
SMALL
GASTEIGER

@<TRIPOS>ATOM
      1 C          -0.4937   60.2506   74.3653 C.ar    1  UNL1        0.0679
      2 C           0.5465   60.0971   73.4703 C.ar    1  UNL1        0.0237
      3 C           0.4045   60.5326   72.1600 C.ar    1  UNL1        0.0862
      4 C          -0.7836   61.1224   71.7498 C.ar    1  UNL1        0.0223
      5 C          -1.8231   61.2754   72.6451 C.ar    1  UNL1        0.0383
      6 C          -1.6808   60.8395   73.9548 C.ar    1  UNL1        0.1399
      7 N           1.4618   60.3772   71.2503 N.ar    1  UNL1       -0.1879
      8 C           2.1739   61.3529   70.6464 C.ar    1  UNL1        0.2599
      9 N           3.0593   60.7701   69.8807 N.ar    1  UNL1       -0.1037
     10 N           2.9552   59.4926   69.9596 N.ar    1  UNL1       -0.0224
     11 N           2.0106   59.1725   70.7768 N.ar    1  UNL1       -0.0386
     12 C           1.9835   62.8373   70.8223 C.3     1  UNL1        0.4542
     13 F           1.8602   63.1336   72.1839 F       1  UNL1       -0.1631
     14 F           3.0886   63.5148   70.2959 F       1  UNL1       -0.1631
     15 F           0.8251   63.2419   70.1502 F       1  UNL1       -0.1631
     16 C          -0.3397   59.7779   75.7878 C.3     1  UNL1        0.1329
     17 N          -0.8887   58.4212   75.9151 N.4     1  UNL1        0.2581
     18 H          -1.8670   58.4288   75.6265 H       1  UNL1        0.2039
     19 H          -0.3458   57.7940   75.3216 H       1  UNL1        0.2039
     20 C           0.1199   56.7251   77.3668 C.3     1  UNL1        0.1252
     21 C          -0.8009   57.9458   77.3024 C.3     1  UNL1        0.1074
     22 C          -2.1957   57.5536   77.7976 C.3     1  UNL1        0.0673
     23 C          -2.7268   56.4002   76.9421 C.3     1  UNL1        0.0669
     24 C          -1.7502   55.2242   77.0170 C.3     1  UNL1        0.1028
     25 N          -0.4312   55.6501   76.5319 N.4     1  UNL1        0.2574
     26 H           0.2046   54.8528   76.5536 H       1  UNL1        0.2038
     27 H          -0.5352   56.0015   75.5800 H       1  UNL1        0.2038
     28 C           4.0004   57.7914   75.9344 C.ar    1  UNL1       -0.0000
     29 C           3.5234   58.3387   77.1108 C.ar    1  UNL1       -0.0001
     30 C           2.2678   57.9934   77.5745 C.ar    1  UNL1        0.0014
     31 C           1.4888   57.1015   76.8612 C.ar    1  UNL1        0.0322
     32 C           1.9677   56.5506   75.6874 C.ar    1  UNL1        0.0014
     33 C           3.2216   56.8992   75.2215 C.ar    1  UNL1       -0.0001
     34 O          -2.7051   60.9896   74.8358 O.3     1  UNL1       -0.4793
     35 C          -4.0069   60.6058   74.3888 C.3     1  UNL1        0.1659
     36 C          -5.0829   61.4310   75.1243 C.3     1  UNL1        0.0435
     37 C          -6.2425   60.4290   75.3489 C.3     1  UNL1        0.0038
     38 C          -5.4969   59.1103   75.6722 C.3     1  UNL1        0.0038
     39 C          -4.2702   59.1303   74.7371 C.3     1  UNL1        0.0435
@<TRIPOS>UNITY_ATOM_ATTR
17 1
charge 1
25 1
charge 1
@<TRIPOS>BOND
     1    28    33   ar
     2    28    29   ar
     3    29    30   ar
     4    30    31   ar
     5    31    32   ar
     6    31    20    1
     7    32    33   ar
     8    20    25    1
     9    20    21    1
    10    21    22    1
    11    21    17    1
    12    22    23    1
    13    23    24    1
    14    24    25    1
    15    17    16    1
    16    16     1    1
    17     1     6   ar
    18     1     2   ar
    19     2     3   ar
    20     3     4   ar
    21     3     7    1
    22     4     5   ar
    23     5     6   ar
    24     6    34    1
    25    34    35    1
    26    35    39    1
    27    35    36    1
    28    36    37    1
    29    37    38    1
    30    38    39    1
    31     7    11   ar
    32     7     8   ar
    33     8     9   ar
    34     8    12    1
    35     9    10   ar
    36    10    11   ar
    37    12    13    1
    38    12    14    1
    39    12    15    1
    40    25    26    1
    41    25    27    1
    42    17    18    1
    43    17    19    1
#	Name:			ZINC22447755
#	Creating user name:	trannguyen
#	Creation time:		Thu Dec  1 16:45:04 2022


#	Modifying user name:	trannguyen
#	Modification time:	Thu Dec  1 16:45:04 2022

@<TRIPOS>MOLECULE
ZINC22447755
 40 44 0 0 0
SMALL
GASTEIGER

@<TRIPOS>ATOM
      1 C          -2.0265   60.7825   73.4678 C.ar    1  UNL1       -0.0133
      2 C          -1.4902   59.8036   74.2863 C.ar    1  UNL1       -0.0038
      3 C          -2.2873   59.1525   75.2052 C.ar    1  UNL1        0.0042
      4 C          -3.6399   59.4733   75.3031 C.ar    1  UNL1        0.0516
      5 C          -4.1800   60.4590   74.4710 C.ar    1  UNL1        0.1396
      6 C          -3.3661   61.1086   73.5561 C.ar    1  UNL1        0.0329
      7 C          -4.5020   58.7733   76.2850 C.ar    1  UNL1        0.0856
      8 C          -4.3385   59.0200   77.6456 C.ar    1  UNL1        0.0193
      9 C          -5.1498   58.3608   78.5551 C.ar    1  UNL1        0.0044
     10 C          -6.1000   57.4748   78.0755 C.ar    1  UNL1        0.0339
     11 C          -6.2122   57.2732   76.7033 C.ar    1  UNL1        0.1253
     12 N          -5.4266   57.9211   75.8584 N.ar    1  UNL1       -0.2310
     13 N          -7.1639   56.3858   76.2145 N.pl3   1  UNL1       -0.3426
     14 H          -7.7512   55.9010   76.8383 H       1  UNL1        0.1437
     15 H          -7.2506   56.2422   75.2444 H       1  UNL1        0.1437
     16 C          -1.1463   61.4916   72.4710 C.3     1  UNL1        0.0873
     17 C          -0.0340   60.5475   72.0104 C.3     1  UNL1        0.1106
     18 N           3.1295   62.3517   69.8695 N.4     1  UNL1        0.2852
     19 C           2.0069   63.2031   70.2872 C.3     1  UNL1        0.1674
     20 C           1.2461   62.5180   71.4248 C.3     1  UNL1        0.1674
     21 N           0.7670   61.2055   70.9696 N.4     1  UNL1        0.2852
     22 C           1.8897   60.3541   70.5520 C.3     1  UNL1        0.1674
     23 C           2.6504   61.0393   69.4143 C.3     1  UNL1        0.1674
     24 H           3.7309   62.2036   70.6799 H       1  UNL1        0.2072
     25 H           0.1658   61.3536   70.1591 H       1  UNL1        0.2072
     26 C           3.9305   63.0098   68.8288 C.3     1  UNL1        0.1106
     27 C           4.6993   64.1820   69.4419 C.3     1  UNL1        0.0872
     28 C           3.9450   67.7222   67.1735 C.ar    1  UNL1       -0.0000
     29 C           3.2505   67.4918   68.3463 C.ar    1  UNL1       -0.0003
     30 C           3.4944   66.3460   69.0802 C.ar    1  UNL1       -0.0041
     31 C           4.4331   65.4309   68.6416 C.ar    1  UNL1       -0.0163
     32 C           5.1317   65.6642   67.4718 C.ar    1  UNL1       -0.0041
     33 C           4.8842   66.8074   66.7351 C.ar    1  UNL1       -0.0003
     34 O          -5.4969   60.7790   74.5593 O.3     1  UNL1       -0.4754
     35 C          -5.8207   62.0336   75.1618 C.3     1  UNL1        0.2053
     36 C          -7.1985   61.9424   75.8208 C.3     1  UNL1        0.0438
     37 C          -7.9335   60.6756   75.3359 C.3     1  UNL1        0.0037
     38 C          -9.4133   61.1170   75.2172 C.3     1  UNL1        0.0001
     39 C          -9.2963   62.5622   74.6723 C.3     1  UNL1        0.0001
     40 C          -8.0651   63.1419   75.3989 C.3     1  UNL1        0.0037
@<TRIPOS>UNITY_ATOM_ATTR
18 1
charge 1
21 1
charge 1
@<TRIPOS>BOND
     1    28    33   ar
     2    28    29   ar
     3    29    30   ar
     4    30    31   ar
     5    31    32   ar
     6    31    27    1
     7    32    33   ar
     8    27    26    1
     9    26    18    1
    10    18    23    1
    11    18    19    1
    12    19    20    1
    13    20    21    1
    14    21    22    1
    15    21    17    1
    16    22    23    1
    17    17    16    1
    18    16     1    1
    19     1     6   ar
    20     1     2   ar
    21     2     3   ar
    22     3     4   ar
    23     4     5   ar
    24     4     7    1
    25     5     6   ar
    26     5    34    1
    27    34    35    1
    28    35    36    1
    29    36    40    1
    30    36    37    1
    31    37    38    1
    32    38    39    1
    33    39    40    1
    34     7    12   ar
    35     7     8   ar
    36     8     9   ar
    37     9    10   ar
    38    10    11   ar
    39    11    12   ar
    40    11    13    1
    41    18    24    1
    42    21    25    1
    43    13    14    1
    44    13    15    1
#	Name:			ZINC22450690
#	Creating user name:	trannguyen
#	Creation time:		Thu Dec  1 16:45:04 2022


#	Modifying user name:	trannguyen
#	Modification time:	Thu Dec  1 16:45:04 2022

@<TRIPOS>MOLECULE
ZINC22450690
 35 37 0 0 0
SMALL
GASTEIGER

@<TRIPOS>ATOM
      1 C           1.2641   58.5893   72.9346 C.3     1  UNL1        0.1328
      2 C          -0.6533   60.1911   72.7215 C.ar    1  UNL1        0.1402
      3 C          -1.2396   61.3198   72.1670 C.ar    1  UNL1        0.0365
      4 C          -0.5501   62.0653   71.2307 C.ar    1  UNL1       -0.0006
      5 C           0.7232   61.6873   70.8455 C.ar    1  UNL1       -0.0060
      6 C           1.3117   60.5664   71.4008 C.ar    1  UNL1        0.0007
      7 C           0.6242   59.8143   72.3340 C.ar    1  UNL1        0.0661
      8 C          -2.6490   59.8903   73.9782 C.3     1  UNL1        0.2525
      9 O          -1.3297   59.4556   73.6427 O.3     1  UNL1       -0.4715
     10 C           1.4730   62.5026   69.8238 C.3     1  UNL1        0.2119
     11 C           2.5120   63.3754   70.5306 C.3     1  UNL1        0.4092
     12 F           2.5917   64.6166   69.8901 F       1  UNL1       -0.1694
     13 F           2.1341   63.5624   71.8645 F       1  UNL1       -0.1694
     14 F           3.7602   62.7453   70.4835 F       1  UNL1       -0.1694
     15 C           2.1778   61.5656   68.8409 C.3     1  UNL1        0.4092
     16 F           1.2464   61.0640   67.9253 F       1  UNL1       -0.1694
     17 F           3.1723   62.2713   68.1552 F       1  UNL1       -0.1694
     18 F           2.7591   60.5045   69.5433 F       1  UNL1       -0.1694
     19 N           1.4809   58.8048   74.3715 N.4     1  UNL1        0.2581
     20 H           0.6931   59.3286   74.7529 H       1  UNL1        0.2039
     21 H           2.3493   59.3254   74.4947 H       1  UNL1        0.2039
     22 C           1.5970   57.5254   75.0840 C.3     1  UNL1        0.1074
     23 C           2.9396   56.8717   74.7452 C.3     1  UNL1        0.0673
     24 C           4.0767   57.7778   75.2253 C.3     1  UNL1        0.0669
     25 C           3.9285   58.0176   76.7308 C.3     1  UNL1        0.1028
     26 N           2.6289   58.6448   77.0030 N.4     1  UNL1        0.2574
     27 C           1.5217   57.7719   76.5925 C.3     1  UNL1        0.1252
     28 H           2.5689   59.5230   76.4878 H       1  UNL1        0.2038
     29 H           2.5543   58.8109   78.0066 H       1  UNL1        0.2038
     30 C           0.2100   58.4337   76.9282 C.ar    1  UNL1        0.0322
     31 C           0.1797   59.7710   77.2767 C.ar    1  UNL1        0.0014
     32 C          -1.0240   60.3790   77.5803 C.ar    1  UNL1       -0.0001
     33 C          -2.1963   59.6474   77.5447 C.ar    1  UNL1       -0.0000
     34 C          -2.1655   58.3089   77.2007 C.ar    1  UNL1       -0.0001
     35 C          -0.9623   57.7019   76.8929 C.ar    1  UNL1        0.0014
@<TRIPOS>UNITY_ATOM_ATTR
19 1
charge 1
26 1
charge 1
@<TRIPOS>BOND
     1     8     9    1
     2     9     2    1
     3     2     7   ar
     4     2     3   ar
     5     3     4   ar
     6     4     5   ar
     7     5     6   ar
     8     5    10    1
     9     6     7   ar
    10     7     1    1
    11     1    19    1
    12    19    22    1
    13    22    27    1
    14    22    23    1
    15    23    24    1
    16    24    25    1
    17    25    26    1
    18    26    27    1
    19    27    30    1
    20    30    35   ar
    21    30    31   ar
    22    31    32   ar
    23    32    33   ar
    24    33    34   ar
    25    34    35   ar
    26    10    11    1
    27    10    15    1
    28    11    12    1
    29    11    13    1
    30    11    14    1
    31    15    16    1
    32    15    17    1
    33    15    18    1
    34    19    20    1
    35    19    21    1
    36    26    28    1
    37    26    29    1
#	Name:			ZINC22453225
#	Creating user name:	trannguyen
#	Creation time:		Thu Dec  1 16:45:04 2022


#	Modifying user name:	trannguyen
#	Modification time:	Thu Dec  1 16:45:04 2022

@<TRIPOS>MOLECULE
ZINC22453225
 43 48 0 0 0
SMALL
GASTEIGER

@<TRIPOS>ATOM
      1 C          -1.1211   58.0252   77.6789 C.3     1  UNL1        0.1036
      2 C          -2.6399   57.9847   77.8897 C.3     1  UNL1        0.0669
      3 C          -2.9208   57.6749   79.3655 C.3     1  UNL1        0.0670
      4 C          -2.2807   56.3295   79.7189 C.3     1  UNL1        0.1055
      5 N          -1.6099   55.7824   78.5315 N.4     1  UNL1        0.2763
      6 C          -0.5303   56.6703   78.0791 C.3     1  UNL1        0.1132
      7 C          -2.5743   55.5314   77.4516 C.3     1  UNL1        0.1055
      8 C          -3.2228   56.8538   77.0328 C.3     1  UNL1        0.0670
      9 H          -1.1910   54.8895   78.7915 H       1  UNL1        0.2067
     10 N          -0.8274   58.2918   76.2645 N.4     1  UNL1        0.2578
     11 H          -0.1512   57.6059   75.9291 H       1  UNL1        0.2039
     12 H          -1.6962   58.2259   75.7342 H       1  UNL1        0.2039
     13 C          -0.2720   59.6403   76.0872 C.3     1  UNL1        0.1328
     14 C          -1.6981   60.6107   74.2677 C.ar    1  UNL1        0.1403
     15 C          -1.8866   61.0206   72.9554 C.ar    1  UNL1        0.0383
     16 C          -0.8572   60.9087   72.0425 C.ar    1  UNL1        0.0223
     17 C           0.3639   60.3771   72.4352 C.ar    1  UNL1        0.0862
     18 C           0.5521   59.9676   73.7479 C.ar    1  UNL1        0.0237
     19 C          -0.4766   60.0843   74.6617 C.ar    1  UNL1        0.0679
     20 N           1.4093   60.2591   71.5062 N.ar    1  UNL1       -0.1879
     21 C           2.0552   61.2582   70.8674 C.ar    1  UNL1        0.2599
     22 N           2.9522   60.7072   70.0919 N.ar    1  UNL1       -0.1037
     23 N           2.9226   59.4281   70.2031 N.ar    1  UNL1       -0.0224
     24 N           2.0090   59.0751   71.0419 N.ar    1  UNL1       -0.0386
     25 C           1.7875   62.7338   71.0158 C.3     1  UNL1        0.4542
     26 F           2.7958   63.4578   70.3706 F       1  UNL1       -0.1631
     27 F           0.5502   63.0434   70.4410 F       1  UNL1       -0.1631
     28 F           1.7680   63.0700   72.3737 F       1  UNL1       -0.1631
     29 C          -3.8998   59.9780   74.9045 C.3     1  UNL1        0.2525
     30 O          -2.7105   60.7254   75.1674 O.3     1  UNL1       -0.4715
     31 C           0.1739   56.0444   76.8736 C.3     1  UNL1        0.0997
     32 C           1.5083   56.7138   76.6680 C.ar    1  UNL1       -0.0127
     33 C           2.0936   56.7186   75.4157 C.ar    1  UNL1       -0.0038
     34 C           3.3151   57.3373   75.2261 C.ar    1  UNL1       -0.0003
     35 C           3.9568   57.9412   76.2912 C.ar    1  UNL1       -0.0000
     36 C           3.3740   57.9318   77.5446 C.ar    1  UNL1       -0.0003
     37 C           2.1497   57.3181   77.7331 C.ar    1  UNL1       -0.0038
     38 C           0.3832   54.5729   77.1224 C.ar    1  UNL1       -0.0127
     39 C          -0.1722   53.6412   76.2654 C.ar    1  UNL1       -0.0038
     40 C           0.0243   52.2915   76.4906 C.ar    1  UNL1       -0.0003
     41 C           0.7667   51.8732   77.5791 C.ar    1  UNL1       -0.0000
     42 C           1.3177   52.8049   78.4389 C.ar    1  UNL1       -0.0003
     43 C           1.1260   54.1546   78.2105 C.ar    1  UNL1       -0.0038
@<TRIPOS>UNITY_ATOM_ATTR
5 1
charge 1
10 1
charge 1
@<TRIPOS>BOND
     1    29    30    1
     2    30    14    1
     3    14    19   ar
     4    14    15   ar
     5    15    16   ar
     6    16    17   ar
     7    17    18   ar
     8    17    20    1
     9    18    19   ar
    10    19    13    1
    11    13    10    1
    12    10     1    1
    13     1     6    1
    14     1     2    1
    15     2     8    1
    16     2     3    1
    17     3     4    1
    18     4     5    1
    19     5     6    1
    20     5     7    1
    21     6    31    1
    22    31    32    1
    23    31    38    1
    24    32    37   ar
    25    32    33   ar
    26    33    34   ar
    27    34    35   ar
    28    35    36   ar
    29    36    37   ar
    30    38    43   ar
    31    38    39   ar
    32    39    40   ar
    33    40    41   ar
    34    41    42   ar
    35    42    43   ar
    36     7     8    1
    37    20    24   ar
    38    20    21   ar
    39    21    22   ar
    40    21    25    1
    41    22    23   ar
    42    23    24   ar
    43    25    26    1
    44    25    27    1
    45    25    28    1
    46    10    11    1
    47    10    12    1
    48     5     9    1
#	Name:			ZINC22458424
#	Creating user name:	trannguyen
#	Creation time:		Thu Dec  1 16:45:04 2022


#	Modifying user name:	trannguyen
#	Modification time:	Thu Dec  1 16:45:04 2022

@<TRIPOS>MOLECULE
ZINC22458424
 40 43 0 0 0
SMALL
GASTEIGER

@<TRIPOS>ATOM
      1 C           0.6374   61.2914   72.3055 C.2     1  UNL1        0.0841
      2 N          -0.2860   61.9465   71.6838 N.4     1  UNL1       -0.2632
      3 O          -1.5856   61.6369   72.1467 O.3     1  UNL1       -0.2539
      4 C          -1.5043   60.4002   72.8838 C.3     1  UNL1        0.1944
      5 C          -0.0256   60.4012   73.3394 C.2     1  UNL1        0.0821
      6 H          -0.1042   62.5929   70.9639 H       1  UNL1        0.1941
      7 C           2.1002   61.7644   70.3428 C.ar    1  UNL1        0.1399
      8 C           2.8639   61.3229   69.2738 C.ar    1  UNL1        0.0369
      9 C           2.9945   59.9698   69.0279 C.ar    1  UNL1        0.0031
     10 C           2.3649   59.0456   69.8447 C.ar    1  UNL1        0.0002
     11 C           1.6013   59.4677   70.9123 C.ar    1  UNL1        0.0045
     12 C           1.4572   60.8328   71.1685 C.ar    1  UNL1        0.0513
     13 O           1.9712   63.0939   70.5855 O.3     1  UNL1       -0.4754
     14 C           3.3282   64.7643   69.4860 C.3     1  UNL1        0.0512
     15 C           2.0224   63.9675   69.4557 C.3     1  UNL1        0.2055
     16 C          -2.4342   60.4161   74.0697 C.ar    1  UNL1        0.0115
     17 C          -3.6083   61.1439   74.0177 C.ar    1  UNL1       -0.0018
     18 C          -4.4633   61.1550   75.1037 C.ar    1  UNL1       -0.0045
     19 C          -4.1398   60.4457   76.2454 C.ar    1  UNL1       -0.0225
     20 C          -2.9632   59.7221   76.2993 C.ar    1  UNL1       -0.0045
     21 C          -2.1102   59.7075   75.2116 C.ar    1  UNL1       -0.0018
     22 C          -5.0701   60.4607   77.4308 C.3     1  UNL1        0.0224
     23 C          -5.2993   61.9051   77.8808 C.3     1  UNL1        0.0047
     24 C          -6.4077   59.8307   77.0373 C.3     1  UNL1        0.0047
     25 C           0.9828   59.9040   74.3429 C.2     1  UNL1        0.2460
     26 O           1.4204   58.7763   74.2553 O.2     1  UNL1       -0.2703
     27 N           1.3985   60.7128   75.3377 N.am    1  UNL1       -0.3008
     28 H           1.1026   61.6514   75.3652 H       1  UNL1        0.1497
     29 C           2.2906   60.1951   76.3782 C.3     1  UNL1        0.0958
     30 C           1.4686   59.4440   77.4274 C.3     1  UNL1        0.0821
     31 C           2.1944   58.1544   77.8164 C.3     1  UNL1        0.1076
     32 N           1.2720   57.0176   77.6941 N.4     1  UNL1        0.2850
     33 C           1.8417   55.9668   76.8391 C.3     1  UNL1        0.1674
     34 C           0.8879   54.7705   76.8017 C.3     1  UNL1        0.1677
     35 N          -0.4207   55.2062   76.2944 N.4     1  UNL1        0.2895
     36 C          -0.9904   56.2570   77.1494 C.3     1  UNL1        0.1677
     37 C          -0.0366   57.4534   77.1868 C.3     1  UNL1        0.1674
     38 C          -1.3431   54.0695   76.1721 C.3     1  UNL1        0.1677
     39 H           1.1340   56.6252   78.6255 H       1  UNL1        0.2072
     40 H          -0.2826   55.5985   75.3630 H       1  UNL1        0.2074
@<TRIPOS>UNITY_ATOM_ATTR
32 1
charge 1
35 1
charge 1
@<TRIPOS>BOND
     1    14    15    1
     2    15    13    1
     3    13     7    1
     4     7    12   ar
     5     7     8   ar
     6     8     9   ar
     7     9    10   ar
     8    10    11   ar
     9    11    12   ar
    10    12     1    1
    11     1     5    2
    12     1     2    1
    13     2     3    1
    14     3     4    1
    15     4    16    1
    16     4     5    1
    17     5    25    1
    18    25    26    2
    19    25    27   am
    20    27    29    1
    21    29    30    1
    22    30    31    1
    23    31    32    1
    24    32    37    1
    25    32    33    1
    26    33    34    1
    27    34    35    1
    28    35    36    1
    29    35    38    1
    30    36    37    1
    31    16    21   ar
    32    16    17   ar
    33    17    18   ar
    34    18    19   ar
    35    19    20   ar
    36    19    22    1
    37    20    21   ar
    38    22    23    1
    39    22    24    1
    40     2     6    1
    41    27    28    1
    42    32    39    1
    43    35    40    1
#	Name:			ZINC22574233
#	Creating user name:	trannguyen
#	Creation time:		Thu Dec  1 16:45:04 2022


#	Modifying user name:	trannguyen
#	Modification time:	Thu Dec  1 16:45:04 2022

@<TRIPOS>MOLECULE
ZINC22574233
 54 54 0 0 0
SMALL
GASTEIGER

@<TRIPOS>ATOM
      1 C          -1.3399   59.8287   73.2301 C.3     1  UNL1        0.1216
      2 C           0.1398   60.1755   73.4062 C.3     1  UNL1        0.1118
      3 N           0.9613   59.0101   73.0527 N.4     1  UNL1        0.2805
      4 C           2.0781   58.8485   73.9932 C.3     1  UNL1        0.1672
      5 C           2.2913   57.3611   74.2811 C.3     1  UNL1        0.1672
      6 N           2.4038   57.1543   75.7311 N.4     1  UNL1        0.2805
      7 C           1.5290   56.0614   76.1765 C.3     1  UNL1        0.1118
      8 C           0.7935   56.4835   77.4499 C.3     1  UNL1        0.1216
      9 C          -0.6785   56.0792   77.3465 C.3     1  UNL1        0.1118
     10 N          -1.5270   57.2232   77.7059 N.4     1  UNL1        0.2805
     11 C          -2.6264   57.3855   76.7452 C.3     1  UNL1        0.1672
     12 C          -2.7961   58.8687   76.4100 C.3     1  UNL1        0.1672
     13 N          -2.8880   59.0341   74.9533 N.4     1  UNL1        0.2805
     14 C          -2.1043   60.1927   74.5046 C.3     1  UNL1        0.1118
     15 H           0.3726   58.1798   73.1197 H       1  UNL1        0.2069
     16 H           3.3669   56.8882   75.9359 H       1  UNL1        0.2069
     17 H          -1.9358   57.0350   78.6212 H       1  UNL1        0.2069
     18 H          -2.4929   58.2008   74.5176 H       1  UNL1        0.2069
     19 C          -0.7333   58.4549   77.8106 C.3     1  UNL1        0.1055
     20 C          -0.7677   58.9626   79.2535 C.3     1  UNL1        0.0611
     21 C          -0.9391   60.4829   79.2553 C.3     1  UNL1        0.0122
     22 C           0.0763   61.1118   78.2992 C.3     1  UNL1        0.0609
     23 C           0.6527   62.3810   78.9300 C.3     1  UNL1        0.0993
     24 N           0.2968   63.5430   78.1048 N.4     1  UNL1        0.2323
     25 H           0.6807   63.4247   77.1673 H       1  UNL1        0.2005
     26 H           0.6810   64.3891   78.5253 H       1  UNL1        0.2005
     27 H          -0.7187   63.6221   78.0488 H       1  UNL1        0.2005
     28 C           2.1124   58.3937   76.4639 C.3     1  UNL1        0.1055
     29 C           3.1857   58.6199   77.5305 C.3     1  UNL1        0.0611
     30 C           3.3811   60.1219   77.7469 C.3     1  UNL1        0.0122
     31 C           3.8429   60.3745   79.1834 C.3     1  UNL1        0.0609
     32 C           4.8557   61.5210   79.1995 C.3     1  UNL1        0.0993
     33 N           4.2874   62.6862   78.5085 N.4     1  UNL1        0.2323
     34 H           4.0712   62.4369   77.5433 H       1  UNL1        0.2005
     35 H           4.9626   63.4506   78.5192 H       1  UNL1        0.2005
     36 H           3.4337   62.9799   78.9831 H       1  UNL1        0.2005
     37 C           1.4474   59.1085   71.6700 C.3     1  UNL1        0.1055
     38 C           1.3091   60.5521   71.1823 C.3     1  UNL1        0.0611
     39 C           2.3251   60.8139   70.0688 C.3     1  UNL1        0.0122
     40 C           1.7705   61.8694   69.1101 C.3     1  UNL1        0.0609
     41 C           1.3187   63.0950   69.9068 C.3     1  UNL1        0.0993
     42 N           0.0083   63.5423   69.4161 N.4     1  UNL1        0.2323
     43 H           0.0804   63.7866   68.4284 H       1  UNL1        0.2005
     44 H          -0.2929   64.3594   69.9473 H       1  UNL1        0.2005
     45 H          -0.6725   62.7916   69.5318 H       1  UNL1        0.2005
     46 C          -4.2881   59.1473   74.5236 C.3     1  UNL1        0.1055
     47 C          -4.9822   60.2462   75.3310 C.3     1  UNL1        0.0611
     48 C          -6.4891   59.9833   75.3599 C.3     1  UNL1        0.0122
     49 C          -7.2080   61.2005   75.9455 C.3     1  UNL1        0.0609
     50 C          -7.9232   61.9581   74.8252 C.3     1  UNL1        0.0993
     51 N          -8.9743   61.1070   74.2519 N.4     1  UNL1        0.2323
     52 H          -8.5552   60.2573   73.8739 H       1  UNL1        0.2005
     53 H          -9.4511   61.6122   73.5049 H       1  UNL1        0.2005
     54 H          -9.6463   60.8606   74.9785 H       1  UNL1        0.2005
@<TRIPOS>UNITY_ATOM_ATTR
3 1
charge 1
6 1
charge 1
10 1
charge 1
13 1
charge 1
24 1
charge 1
33 1
charge 1
42 1
charge 1
51 1
charge 1
@<TRIPOS>BOND
     1     1    14    1
     2     1     2    1
     3     2     3    1
     4     3     4    1
     5     3    37    1
     6     4     5    1
     7     5     6    1
     8     6     7    1
     9     6    28    1
    10     7     8    1
    11     8     9    1
    12     9    10    1
    13    10    11    1
    14    10    19    1
    15    11    12    1
    16    12    13    1
    17    13    14    1
    18    13    46    1
    19    46    47    1
    20    47    48    1
    21    48    49    1
    22    49    50    1
    23    50    51    1
    24    19    20    1
    25    20    21    1
    26    21    22    1
    27    22    23    1
    28    23    24    1
    29    28    29    1
    30    29    30    1
    31    30    31    1
    32    31    32    1
    33    32    33    1
    34    37    38    1
    35    38    39    1
    36    39    40    1
    37    40    41    1
    38    41    42    1
    39     3    15    1
    40     6    16    1
    41    10    17    1
    42    13    18    1
    43    51    52    1
    44    51    53    1
    45    51    54    1
    46    24    25    1
    47    24    26    1
    48    24    27    1
    49    33    34    1
    50    33    35    1
    51    33    36    1
    52    42    43    1
    53    42    44    1
    54    42    45    1
#	Name:			ZINC23024678
#	Creating user name:	trannguyen
#	Creation time:		Thu Dec  1 16:45:04 2022


#	Modifying user name:	trannguyen
#	Modification time:	Thu Dec  1 16:45:04 2022

@<TRIPOS>MOLECULE
ZINC23024678
 13 15 0 0 0
SMALL
GASTEIGER

@<TRIPOS>ATOM
      1 C           1.7507   62.6990   71.5195 C.3     1  UNL1        0.1674
      2 C           1.8816   61.7365   70.3188 C.3     1  UNL1        0.1677
      3 C           0.9800   62.7494   69.5909 C.3     1  UNL1        0.1674
      4 N           1.5735   63.7539   70.4927 N.4     1  UNL1        0.2852
      5 C           2.8844   64.2198   70.0337 C.3     1  UNL1        0.1148
      6 C           3.7734   63.0588   69.6074 C.3     1  UNL1        0.1617
      7 N           3.2534   61.6985   69.8077 N.4     1  UNL1        0.2893
      8 C           3.3880   62.1725   68.4319 C.3     1  UNL1        0.1674
      9 H           1.0775   64.6250   70.6811 H       1  UNL1        0.2072
     10 H           3.5766   60.8585   70.2876 H       1  UNL1        0.2074
     11 C           2.7139   65.1961   68.8691 C.3     1  UNL1        0.0992
     12 C           3.8272   66.2447   68.9155 C.3     1  UNL1        0.1993
     13 F           3.2698   67.5067   69.1470 F       1  UNL1       -0.2341
@<TRIPOS>UNITY_ATOM_ATTR
4 1
charge 1
7 1
charge 1
@<TRIPOS>BOND
     1     1     4    1
     2     1     2    1
     3     2     7    1
     4     2     3    1
     5     3     4    1
     6     4     5    1
     7     5     6    1
     8     5    11    1
     9     6     8    1
    10     6     7    1
    11     7     8    1
    12    11    12    1
    13    12    13    1
    14     4     9    1
    15     7    10    1
#	Name:			ZINC23070454
#	Creating user name:	trannguyen
#	Creation time:		Thu Dec  1 16:45:04 2022


#	Modifying user name:	trannguyen
#	Modification time:	Thu Dec  1 16:45:04 2022

@<TRIPOS>MOLECULE
ZINC23070454
 18 19 0 0 0
SMALL
GASTEIGER

@<TRIPOS>ATOM
      1 C           3.9267   64.6034   66.6953 C.3     1  UNL1        0.0001
      2 C           5.1077   65.4051   67.2462 C.3     1  UNL1        0.0040
      3 C           4.9342   65.5976   68.7541 C.3     1  UNL1        0.0061
      4 C           3.6329   66.3550   69.0252 C.3     1  UNL1        0.0585
      5 C           3.6859   67.7217   68.3393 C.3     1  UNL1        0.0900
      6 C           3.8593   67.5291   66.8315 C.3     1  UNL1        0.2142
      7 C           5.1607   66.7717   66.5605 C.3     1  UNL1        0.0495
      8 N           2.4363   68.4490   68.5997 N.4     1  UNL1        0.2307
      9 H           1.6490   67.9145   68.2324 H       1  UNL1        0.2004
     10 H           2.4716   69.3601   68.1424 H       1  UNL1        0.2004
     11 H           2.3207   68.5774   69.6050 H       1  UNL1        0.2004
     12 O           3.9089   68.8056   66.1909 O.3     1  UNL1       -0.4733
     13 C           4.0990   68.8136   64.8453 C.ar    1  UNL1        0.1387
     14 C           3.0412   68.5339   63.9924 C.ar    1  UNL1        0.0369
     15 C           3.2372   68.5424   62.6250 C.ar    1  UNL1        0.0031
     16 C           4.4863   68.8292   62.1062 C.ar    1  UNL1        0.0002
     17 C           5.5423   69.1078   62.9541 C.ar    1  UNL1        0.0031
     18 C           5.3515   69.1007   64.3223 C.ar    1  UNL1        0.0369
@<TRIPOS>UNITY_ATOM_ATTR
8 1
charge 1
@<TRIPOS>BOND
     1     1     2    1
     2     2     7    1
     3     2     3    1
     4     3     4    1
     5     4     5    1
     6     5     6    1
     7     5     8    1
     8     6     7    1
     9     6    12    1
    10    12    13    1
    11    13    18   ar
    12    13    14   ar
    13    14    15   ar
    14    15    16   ar
    15    16    17   ar
    16    17    18   ar
    17     8     9    1
    18     8    10    1
    19     8    11    1
#	Name:			ZINC23083826
#	Creating user name:	trannguyen
#	Creation time:		Thu Dec  1 16:45:04 2022


#	Modifying user name:	trannguyen
#	Modification time:	Thu Dec  1 16:45:04 2022

@<TRIPOS>MOLECULE
ZINC23083826
 13 16 0 0 0
SMALL
GASTEIGER

@<TRIPOS>ATOM
      1 C           1.2003   51.2714   76.3985 C.3     1  UNL1        0.1675
      2 N           0.4204   51.8856   75.3183 N.4     1  UNL1        0.2839
      3 C          -0.8683   52.4472   75.8215 C.3     1  UNL1        0.0862
      4 C          -1.5222   52.8095   74.3932 C.3     1  UNL1        0.1206
      5 C          -1.6035   51.3361   74.1722 C.3     1  UNL1        0.1184
      6 C          -0.1925   50.8495   74.4274 C.3     1  UNL1        0.1600
      7 C          -1.0984   50.1183   75.3458 C.3     1  UNL1        0.1356
      8 C          -1.7713   51.2836   76.1868 C.2     1  UNL1        0.0606
      9 C          -2.6309   50.3866   76.5406 C.2     1  UNL1        0.0368
     10 C          -3.2678   49.9652   75.2121 C.3     1  UNL1        0.1328
     11 N          -2.1015   49.9786   74.2025 N.4     1  UNL1        0.2828
     12 H           1.0787   52.5384   74.8931 H       1  UNL1        0.2073
     13 H          -2.2454   49.3785   73.3903 H       1  UNL1        0.2074
@<TRIPOS>UNITY_ATOM_ATTR
2 1
charge 1
11 1
charge 1
@<TRIPOS>BOND
     1     1     2    1
     2     2     6    1
     3     2     3    1
     4     3     8    1
     5     3     4    1
     6     4     5    1
     7     5    11    1
     8     5     6    1
     9     6     7    1
    10     7    11    1
    11     7     8    1
    12     8     9    2
    13     9    10    1
    14    10    11    1
    15     2    12    1
    16    11    13    1
#	Name:			ZINC23088183
#	Creating user name:	trannguyen
#	Creation time:		Thu Dec  1 16:45:04 2022


#	Modifying user name:	trannguyen
#	Modification time:	Thu Dec  1 16:45:04 2022

@<TRIPOS>MOLECULE
ZINC23088183
 13 16 0 0 0
SMALL
GASTEIGER

@<TRIPOS>ATOM
      1 C          -4.4880   50.8768   75.8492 C.3     1  UNL1        0.1670
      2 N          -3.4035   51.7551   76.3080 N.4     1  UNL1        0.2796
      3 C          -3.2513   52.8310   75.4661 C.3     1  UNL1        0.1223
      4 C          -2.9491   54.2301   75.0455 C.3     1  UNL1        0.2644
      5 N          -1.7074   54.0407   74.2159 N.2     1  UNL1       -0.2587
      6 C          -1.3761   52.7762   74.3099 C.2     1  UNL1        0.2632
      7 C          -1.7061   52.6021   75.8168 C.3     1  UNL1        0.2074
      8 C          -2.0947   51.1445   76.0636 C.3     1  UNL1        0.1203
      9 C          -1.6696   50.5308   74.7348 C.3     1  UNL1        0.2564
     10 N          -1.0009   51.5609   73.9127 N.pl3   1  UNL1       -0.1885
     11 C          -0.1492   50.5501   74.4789 C.3     1  UNL1        0.2550
     12 H          -3.6400   51.9613   77.2785 H       1  UNL1        0.2068
     13 H          -1.2346   54.7341   73.7012 H       1  UNL1        0.3046
@<TRIPOS>UNITY_ATOM_ATTR
2 1
charge 1
5 1
charge 1
@<TRIPOS>BOND
     1     1     2    1
     2     2     8    1
     3     2     3    1
     4     3     7    1
     5     3     4    1
     6     4     5    1
     7     5     6    2
     8     6    10    1
     9     6     7    1
    10     7     8    1
    11     8     9    1
    12     9    11    1
    13     9    10    1
    14    10    11    1
    15     2    12    1
    16     5    13    1
#	Name:			ZINC23089276
#	Creating user name:	trannguyen
#	Creation time:		Thu Dec  1 16:45:04 2022


#	Modifying user name:	trannguyen
#	Modification time:	Thu Dec  1 16:45:04 2022

@<TRIPOS>MOLECULE
ZINC23089276
 13 16 0 0 0
SMALL
GASTEIGER

@<TRIPOS>ATOM
      1 C           3.6094   63.1035   70.2619 C.3     1  UNL1        0.1218
      2 C           2.1456   63.6771   70.1643 C.3     1  UNL1        0.1119
      3 N           1.9630   64.2825   68.8309 N.4     1  UNL1        0.2827
      4 C           3.2824   64.2381   68.1983 C.3     1  UNL1        0.1584
      5 C           4.2433   64.1532   69.4267 C.3     1  UNL1        0.1176
      6 N           5.4469   64.8440   69.1857 N.4     1  UNL1        0.2830
      7 C           5.4635   65.4474   67.8319 C.3     1  UNL1        0.1641
      8 C           4.9173   66.2402   68.9815 C.3     1  UNL1        0.1506
      9 C           3.4397   66.4730   69.2413 C.3     1  UNL1        0.2698
     10 C           2.5140   65.5604   68.4739 C.3     1  UNL1        0.1504
     11 F           3.1344   67.8011   68.9248 F       1  UNL1       -0.2244
     12 H           1.0021   63.9763   68.6790 H       1  UNL1        0.2070
     13 H           6.1614   64.3397   69.7107 H       1  UNL1        0.2070
@<TRIPOS>UNITY_ATOM_ATTR
3 1
charge 1
6 1
charge 1
@<TRIPOS>BOND
     1     1     5    1
     2     1     2    1
     3     2     3    1
     4     3    10    1
     5     3     4    1
     6     4    10    1
     7     4     5    1
     8     5     6    1
     9     6     8    1
    10     6     7    1
    11     7     8    1
    12     8     9    1
    13     9    10    1
    14     9    11    1
    15     3    12    1
    16     6    13    1
#	Name:			ZINC23169457
#	Creating user name:	trannguyen
#	Creation time:		Thu Dec  1 16:45:04 2022


#	Modifying user name:	trannguyen
#	Modification time:	Thu Dec  1 16:45:04 2022

@<TRIPOS>MOLECULE
ZINC23169457
 13 15 0 0 0
SMALL
GASTEIGER

@<TRIPOS>ATOM
      1 C           4.8788   64.0029   69.6798 C.3     1  UNL1        0.1218
      2 C           5.5035   65.1821   68.9375 C.3     1  UNL1        0.1121
      3 N           4.5312   66.0794   68.3457 N.4     1  UNL1        0.2851
      4 C           3.3091   66.2098   69.1450 C.3     1  UNL1        0.1674
      5 C           3.3155   65.4612   67.8243 C.3     1  UNL1        0.1672
      6 C           3.2178   63.9575   67.7112 C.3     1  UNL1        0.1618
      7 C           4.1104   63.1417   68.6736 C.3     1  UNL1        0.1181
      8 N           2.6627   63.0532   68.6856 N.4     1  UNL1        0.2866
      9 H           5.2071   66.7270   67.9406 H       1  UNL1        0.2072
     10 H           2.0176   62.2658   68.6211 H       1  UNL1        0.2074
     11 C           1.9507   63.6237   69.7996 C.3     1  UNL1        0.1791
     12 C           0.5822   62.9999   69.8937 C.2     1  UNL1        0.2679
     13 O          -0.3515   63.5022   69.3154 O.2     1  UNL1       -0.2818
@<TRIPOS>UNITY_ATOM_ATTR
3 1
charge 1
8 1
charge 1
@<TRIPOS>BOND
     1     1     7    1
     2     1     2    1
     3     2     3    1
     4     3     5    1
     5     3     4    1
     6     4     5    1
     7     5     6    1
     8     6     8    1
     9     6     7    1
    10     7     8    1
    11     8    11    1
    12    11    12    1
    13    12    13    2
    14     3     9    1
    15     8    10    1
#	Name:			ZINC23174947
#	Creating user name:	trannguyen
#	Creation time:		Thu Dec  1 16:45:04 2022


#	Modifying user name:	trannguyen
#	Modification time:	Thu Dec  1 16:45:04 2022

@<TRIPOS>MOLECULE
ZINC23174947
 13 15 0 0 0
SMALL
GASTEIGER

@<TRIPOS>ATOM
      1 C          -5.1951   60.4587   76.5150 C.3     1  UNL1        0.1678
      2 C          -5.2205   58.9504   76.1721 C.3     1  UNL1        0.1678
      3 N          -4.6450   58.8696   74.7910 N.4     1  UNL1        0.2884
      4 C          -5.1331   60.1540   74.1887 C.3     1  UNL1        0.1664
      5 C          -3.9471   61.1167   74.5509 C.3     1  UNL1        0.1387
      6 N          -3.8688   60.9589   76.0479 N.4     1  UNL1        0.2884
      7 C          -2.9615   59.7637   76.2953 C.3     1  UNL1        0.1664
      8 C          -3.1592   59.0061   74.9392 C.3     1  UNL1        0.1387
      9 C          -2.8182   60.2021   74.0162 C.2     1  UNL1        0.0944
     10 C          -1.8928   60.3806   73.1021 C.2     1  UNL1        0.1702
     11 F          -1.8222   61.5517   72.4321 F       1  UNL1       -0.2021
     12 H          -4.8822   58.0258   74.2693 H       1  UNL1        0.2076
     13 H          -3.5741   61.8291   76.4909 H       1  UNL1        0.2076
@<TRIPOS>UNITY_ATOM_ATTR
3 1
charge 1
6 1
charge 1
@<TRIPOS>BOND
     1     1     6    1
     2     1     2    1
     3     2     3    1
     4     3     8    1
     5     3     4    1
     6     4     5    1
     7     5     9    1
     8     5     6    1
     9     6     7    1
    10     7     8    1
    11     8     9    1
    12     9    10    2
    13    10    11    1
    14     3    12    1
    15     6    13    1
#	Name:			ZINC23310620
#	Creating user name:	trannguyen
#	Creation time:		Thu Dec  1 16:45:04 2022


#	Modifying user name:	trannguyen
#	Modification time:	Thu Dec  1 16:45:04 2022

@<TRIPOS>MOLECULE
ZINC23310620
 24 27 0 0 0
SMALL
GASTEIGER

@<TRIPOS>ATOM
      1 C          -1.0085   60.1782   74.3467 C.ar    1  UNL1        0.1721
      2 N          -0.6321   60.6340   75.5166 N.ar    1  UNL1       -0.1118
      3 N           0.6540   60.7104   75.5189 N.ar    1  UNL1       -0.0230
      4 N           1.1074   60.3224   74.3781 N.ar    1  UNL1       -0.0428
      5 N           0.1132   59.9862   73.6279 N.ar    1  UNL1       -0.2116
      6 C          -2.4228   59.9244   73.8925 C.3     1  UNL1        0.1250
      7 S          -3.5642   60.2309   75.2687 S.3     1  UNL1       -0.1267
      8 C          -4.4511   61.7348   74.7766 C.3     1  UNL1        0.0907
      9 C          -8.2476   61.9677   74.9871 C.ar    1  UNL1        0.0072
     10 C          -6.9452   62.4097   74.8486 C.ar    1  UNL1        0.0036
     11 C          -5.9353   61.5073   74.9046 C.ar    1  UNL1        0.0182
     12 S          -6.8197   59.9795   75.1716 S.2     1  UNL1       -0.0899
     13 C          -8.4760   60.6457   75.1808 C.ar    1  UNL1        0.0351
     14 C           0.1904   59.4884   72.2522 C.3     1  UNL1        0.1579
     15 C           0.7145   60.5779   71.3525 C.ar    1  UNL1        0.0160
     16 C           0.0768   61.8039   71.3100 C.ar    1  UNL1        0.0018
     17 C           0.5538   62.8063   70.4863 C.ar    1  UNL1        0.0400
     18 C           1.6734   62.5849   69.7004 C.ar    1  UNL1        0.1773
     19 C           2.3161   61.3506   69.7426 C.ar    1  UNL1        0.1866
     20 C           1.8360   60.3513   70.5750 C.ar    1  UNL1        0.0926
     21 CL          2.6386   58.8132   70.6368 Cl      1  UNL1       -0.0792
     22 O           3.3797   61.3829   68.8872 O.3     1  UNL1       -0.4338
     23 C           3.6230   62.7784   68.6291 C.3     1  UNL1        0.4294
     24 O           2.3339   63.3910   68.8187 O.3     1  UNL1       -0.4346
@<TRIPOS>BOND
     1     9    13   ar
     2     9    10   ar
     3    10    11   ar
     4    11    12   ar
     5    11     8    1
     6    12    13   ar
     7     8     7    1
     8     7     6    1
     9     6     1    1
    10     1     5   ar
    11     1     2   ar
    12     2     3   ar
    13     3     4   ar
    14     4     5   ar
    15     5    14    1
    16    14    15    1
    17    15    20   ar
    18    15    16   ar
    19    16    17   ar
    20    17    18   ar
    21    18    24    1
    22    18    19   ar
    23    19    20   ar
    24    19    22    1
    25    20    21    1
    26    22    23    1
    27    23    24    1
#	Name:			ZINC23335056
#	Creating user name:	trannguyen
#	Creation time:		Thu Dec  1 16:45:04 2022


#	Modifying user name:	trannguyen
#	Modification time:	Thu Dec  1 16:45:04 2022

@<TRIPOS>MOLECULE
ZINC23335056
 37 39 0 0 0
SMALL
GASTEIGER

@<TRIPOS>ATOM
      1 C          -1.7422   60.3335   73.6296 C.ar    1  UNL1        0.0534
      2 C          -0.4669   59.7916   73.8125 C.ar    1  UNL1        0.0046
      3 C           0.5730   60.2040   73.0198 C.ar    1  UNL1        0.0016
      4 C           0.3581   61.1655   72.0295 C.ar    1  UNL1        0.0171
      5 C          -0.9152   61.7112   71.8500 C.ar    1  UNL1        0.0016
      6 C          -1.9569   61.2954   72.6388 C.ar    1  UNL1        0.0046
      7 C           1.4797   61.6102   71.1755 C.ar    1  UNL1        0.0754
      8 C           1.8280   62.9030   70.9091 C.ar    1  UNL1        0.0393
      9 C           2.9431   62.8796   70.0558 C.ar    1  UNL1        0.1021
     10 N           3.2612   61.6227   69.8241 N.ar    1  UNL1       -0.1727
     11 N           2.3592   60.8033   70.5143 N.ar    1  UNL1       -0.2757
     12 H           2.3598   59.8188   70.5212 H       1  UNL1        0.1889
     13 C           3.6470   64.0683   69.5128 C.ar    1  UNL1        0.0193
     14 C           5.0363   64.0692   69.4044 C.ar    1  UNL1        0.0015
     15 C           5.6853   65.1752   68.8944 C.ar    1  UNL1       -0.0000
     16 C           4.9600   66.2857   68.5013 C.ar    1  UNL1        0.0039
     17 C           3.5811   66.2900   68.6064 C.ar    1  UNL1        0.0715
     18 C           2.9214   65.1870   69.1102 C.ar    1  UNL1        0.0054
     19 C           2.7973   67.5011   68.1705 C.3     1  UNL1        0.4186
     20 F           1.4385   67.1757   68.0980 F       1  UNL1       -0.1659
     21 F           2.9808   68.5334   69.0967 F       1  UNL1       -0.1659
     22 F           3.2446   67.9182   66.9124 F       1  UNL1       -0.1659
     23 N          -3.8871   60.7273   74.7393 N.am    1  UNL1       -0.3025
     24 C          -2.8624   59.8900   74.4834 C.2     1  UNL1        0.2458
     25 O          -2.8603   58.7697   74.9556 O.2     1  UNL1       -0.2701
     26 H          -3.8888   61.6345   74.3569 H       1  UNL1        0.1497
     27 C          -4.9985   60.2872   75.5864 C.3     1  UNL1        0.0721
     28 C          -6.1956   59.9202   74.7072 C.3     1  UNL1        0.0213
     29 C          -5.3927   61.4182   76.5386 C.3     1  UNL1        0.0257
     30 C          -5.2859   62.7591   75.8096 C.3     1  UNL1        0.0626
     31 C          -6.6608   63.4293   75.7709 C.3     1  UNL1        0.1053
     32 N          -6.9092   63.9594   74.4236 N.4     1  UNL1        0.2758
     33 H          -6.2385   63.5274   73.7881 H       1  UNL1        0.2067
     34 C          -8.8760   62.5856   74.9156 C.3     1  UNL1        0.0670
     35 C          -8.2591   63.6101   73.9611 C.3     1  UNL1        0.1055
     36 C          -6.6985   65.4127   74.3825 C.3     1  UNL1        0.1055
     37 C          -6.6940   65.9679   75.8082 C.3     1  UNL1        0.0670
@<TRIPOS>UNITY_ATOM_ATTR
32 1
charge 1
@<TRIPOS>BOND
     1    34    35    1
     2    35    32    1
     3    32    36    1
     4    32    31    1
     5    36    37    1
     6    31    30    1
     7    30    29    1
     8    29    27    1
     9    27    28    1
    10    27    23    1
    11    23    24   am
    12    24    25    2
    13    24     1    1
    14     1     6   ar
    15     1     2   ar
    16     2     3   ar
    17     3     4   ar
    18     4     5   ar
    19     4     7    1
    20     5     6   ar
    21     7    11   ar
    22     7     8   ar
    23     8     9   ar
    24     9    10   ar
    25     9    13    1
    26    10    11   ar
    27    13    18   ar
    28    13    14   ar
    29    14    15   ar
    30    15    16   ar
    31    16    17   ar
    32    17    18   ar
    33    17    19    1
    34    19    20    1
    35    19    21    1
    36    19    22    1
    37    32    33    1
    38    23    26    1
    39    11    12    1
#	Name:			ZINC23544048
#	Creating user name:	trannguyen
#	Creation time:		Thu Dec  1 16:45:04 2022


#	Modifying user name:	trannguyen
#	Modification time:	Thu Dec  1 16:45:04 2022

@<TRIPOS>MOLECULE
ZINC23544048
 30 33 0 0 0
SMALL
GASTEIGER

@<TRIPOS>ATOM
      1 C          -1.6756   60.3991   73.6292 C.ar    1  UNL1        0.0844
      2 C          -3.0508   60.6552   73.5089 C.ar    1  UNL1        0.0238
      3 C          -3.9080   60.2621   74.5257 C.ar    1  UNL1        0.0565
      4 C          -3.3149   59.5917   75.6833 C.ar    1  UNL1        0.0218
      5 C          -4.0987   59.1590   76.7586 C.ar    1  UNL1        0.0016
      6 C          -3.5053   58.5389   77.8179 C.ar    1  UNL1       -0.0002
      7 C          -2.1281   58.3310   77.8433 C.ar    1  UNL1       -0.0028
      8 C          -1.3368   58.7390   76.8138 C.ar    1  UNL1       -0.0042
      9 C          -1.9134   59.3826   75.7034 C.ar    1  UNL1        0.0774
     10 N          -1.1631   59.7899   74.6775 N.ar    1  UNL1       -0.2456
     11 C           0.1508   58.5033   76.8635 C.3     1  UNL1        0.0326
     12 N           0.8828   60.8785   71.1012 N.ar    1  UNL1       -0.2494
     13 C           0.3478   60.1644   72.1097 C.ar    1  UNL1        0.0981
     14 C          -0.7703   60.8239   72.5351 C.ar    1  UNL1        0.0572
     15 C          -0.9058   61.9825   71.7436 C.ar    1  UNL1        0.1231
     16 N           0.0867   62.0115   70.8950 N.ar    1  UNL1       -0.1676
     17 C           2.0936   60.5325   70.3525 C.3     1  UNL1        0.1275
     18 C           3.2889   62.2145   68.9438 C.3     1  UNL1        0.0021
     19 C           2.0901   61.2661   69.0099 C.3     1  UNL1        0.0264
     20 C          -5.3640   60.5102   74.4431 C.2     1  UNL1        0.2493
     21 O          -6.0978   59.6678   73.9645 O.2     1  UNL1       -0.2699
     22 N          -5.8768   61.6704   74.8984 N.am    1  UNL1       -0.2700
     23 C          -4.9839   62.7249   75.3853 C.3     1  UNL1        0.1153
     24 C          -7.3271   61.8769   74.9068 C.3     1  UNL1        0.1365
     25 C          -7.9078   61.5494   76.3016 C.3     1  UNL1        0.0867
     26 C          -8.0004   62.9421   76.9742 C.3     1  UNL1        0.1076
     27 N          -8.4077   63.8325   75.8573 N.4     1  UNL1        0.2817
     28 C          -7.6566   63.3629   74.6728 C.3     1  UNL1        0.1257
     29 C          -8.0909   65.2347   76.1596 C.3     1  UNL1        0.1672
     30 H          -9.4146   63.7946   75.6989 H       1  UNL1        0.2070
@<TRIPOS>UNITY_ATOM_ATTR
27 1
charge 1
@<TRIPOS>BOND
     1    18    19    1
     2    19    17    1
     3    17    12    1
     4    12    16   ar
     5    12    13   ar
     6    13    14   ar
     7    14    15   ar
     8    14     1    1
     9    15    16   ar
    10     1    10   ar
    11     1     2   ar
    12     2     3   ar
    13     3     4   ar
    14     3    20    1
    15     4     9   ar
    16     4     5   ar
    17     5     6   ar
    18     6     7   ar
    19     7     8   ar
    20     8     9   ar
    21     8    11    1
    22     9    10   ar
    23    20    21    2
    24    20    22   am
    25    22    23    1
    26    22    24    1
    27    24    28    1
    28    24    25    1
    29    25    26    1
    30    26    27    1
    31    27    28    1
    32    27    29    1
    33    27    30    1
#	Name:			ZINC23644685
#	Creating user name:	trannguyen
#	Creation time:		Thu Dec  1 16:45:04 2022


#	Modifying user name:	trannguyen
#	Modification time:	Thu Dec  1 16:45:04 2022

@<TRIPOS>MOLECULE
ZINC23644685
 33 36 0 0 0
SMALL
GASTEIGER

@<TRIPOS>ATOM
      1 C           3.3077   63.5492   67.9757 C.2     1  UNL1        0.2362
      2 O           3.1953   63.3579   66.7833 O.2     1  UNL1       -0.2739
      3 N           2.6800   62.7383   68.8504 N.am    1  UNL1       -0.2706
      4 C           3.3302   65.5359   69.4593 C.3     1  UNL1        0.0218
      5 C           4.1490   64.6935   68.4792 C.3     1  UNL1        0.1312
      6 S           4.6646   65.7233   67.0829 S.3     1  UNL1       -0.0655
      7 C           3.8703   67.2373   67.5096 C.ar    1  UNL1        0.2151
      8 N           3.3642   67.5515   68.6827 N.ar    1  UNL1       -0.1011
      9 N           2.8611   68.7326   68.6539 N.ar    1  UNL1       -0.0218
     10 N           2.9969   69.2504   67.4813 N.ar    1  UNL1       -0.0382
     11 N           3.6598   68.2968   66.6890 N.ar    1  UNL1       -0.1862
     12 C           4.0248   68.4154   65.3391 C.ar    1  UNL1        0.0868
     13 C           3.0524   68.6406   64.3742 C.ar    1  UNL1        0.0224
     14 C           3.4124   68.7620   63.0468 C.ar    1  UNL1        0.0382
     15 C           4.7445   68.6488   62.6761 C.ar    1  UNL1        0.1338
     16 C           5.7161   68.4179   63.6393 C.ar    1  UNL1        0.0382
     17 C           5.3575   68.3017   64.9676 C.ar    1  UNL1        0.0224
     18 O           5.0980   68.7636   61.3685 O.3     1  UNL1       -0.5055
     19 H           4.4421   68.9194   60.7178 H       1  UNL1        0.2922
     20 C           1.9453   61.5671   68.3660 C.3     1  UNL1        0.1205
     21 C           2.4497   60.3322   69.0673 C.ar    1  UNL1       -0.0023
     22 C           1.6868   59.7381   70.0551 C.ar    1  UNL1       -0.0026
     23 C           2.1473   58.6026   70.6951 C.ar    1  UNL1       -0.0003
     24 C           3.3753   58.0671   70.3541 C.ar    1  UNL1       -0.0000
     25 C           4.1407   58.6644   69.3702 C.ar    1  UNL1       -0.0003
     26 C           3.6778   59.7969   68.7265 C.ar    1  UNL1       -0.0026
     27 C           2.7324   63.0282   70.2854 C.3     1  UNL1        0.1205
     28 C           1.4452   62.5889   70.9341 C.ar    1  UNL1       -0.0023
     29 C           0.2351   62.8646   70.3252 C.ar    1  UNL1       -0.0026
     30 C          -0.9454   62.4572   70.9179 C.ar    1  UNL1       -0.0003
     31 C          -0.9165   61.7831   72.1244 C.ar    1  UNL1       -0.0000
     32 C           0.2933   61.5125   72.7361 C.ar    1  UNL1       -0.0003
     33 C           1.4742   61.9152   72.1409 C.ar    1  UNL1       -0.0026
@<TRIPOS>BOND
     1     4     5    1
     2     5     1    1
     3     5     6    1
     4     1     2    2
     5     1     3   am
     6     3    20    1
     7     3    27    1
     8    20    21    1
     9    21    26   ar
    10    21    22   ar
    11    22    23   ar
    12    23    24   ar
    13    24    25   ar
    14    25    26   ar
    15    27    28    1
    16    28    33   ar
    17    28    29   ar
    18    29    30   ar
    19    30    31   ar
    20    31    32   ar
    21    32    33   ar
    22     6     7    1
    23     7    11   ar
    24     7     8   ar
    25     8     9   ar
    26     9    10   ar
    27    10    11   ar
    28    11    12    1
    29    12    17   ar
    30    12    13   ar
    31    13    14   ar
    32    14    15   ar
    33    15    16   ar
    34    15    18    1
    35    16    17   ar
    36    18    19    1
#	Name:			ZINC23686592
#	Creating user name:	trannguyen
#	Creation time:		Thu Dec  1 16:45:04 2022


#	Modifying user name:	trannguyen
#	Modification time:	Thu Dec  1 16:45:04 2022

@<TRIPOS>MOLECULE
ZINC23686592
 31 33 0 0 0
SMALL
GASTEIGER

@<TRIPOS>ATOM
      1 C          -0.5570   61.6151   72.0462 C.2     1  UNL1        0.2721
      2 O          -0.5833   62.7486   72.4770 O.2     1  UNL1       -0.2707
      3 N           0.2494   61.3060   71.0115 N.am    1  UNL1       -0.2597
      4 H           0.2707   60.3859   70.6619 H       1  UNL1        0.1569
      5 C           1.0525   62.2881   70.4368 C.ar    1  UNL1        0.1886
      6 N           0.7348   63.2676   69.6063 N.ar    1  UNL1       -0.1248
      7 N           1.5946   64.0830   69.1742 N.ar    1  UNL1       -0.1331
      8 C           2.8699   64.0081   69.5259 C.ar    1  UNL1        0.1609
      9 S           2.8081   62.5901   70.6173 S.2     1  UNL1       -0.0241
     10 S           4.2349   65.0200   69.0595 S.3     1  UNL1       -0.0818
     11 C           3.5108   66.6718   68.8657 C.3     1  UNL1        0.0904
     12 C           3.9186   67.2461   67.5334 C.ar    1  UNL1       -0.0109
     13 C           3.2824   68.3739   67.0459 C.ar    1  UNL1       -0.0027
     14 C           3.6541   68.9076   65.8294 C.ar    1  UNL1        0.0100
     15 C           4.6676   68.3008   65.0848 C.ar    1  UNL1        0.0684
     16 C           5.3018   67.1598   65.5805 C.ar    1  UNL1        0.0100
     17 C           4.9237   66.6397   66.8009 C.ar    1  UNL1       -0.0027
     18 C           5.0552   68.8464   63.8188 C.1     1  UNL1        0.1004
     19 N           5.3627   69.2792   62.8145 N.1     1  UNL1       -0.1908
     20 C          -1.4259   60.5524   72.6681 C.3     1  UNL1        0.2897
     21 O          -2.1066   61.0962   73.8007 O.3     1  UNL1       -0.4656
     22 C          -5.5576   60.3476   74.6762 C.ar    1  UNL1        0.0031
     23 C          -5.4281   59.0546   75.1493 C.ar    1  UNL1        0.0041
     24 C          -4.1867   58.4470   75.1761 C.ar    1  UNL1        0.0744
     25 C          -3.0736   59.1264   74.7192 C.ar    1  UNL1        0.0408
     26 C          -3.2008   60.4235   74.2446 C.ar    1  UNL1        0.1392
     27 C          -4.4470   61.0332   74.2241 C.ar    1  UNL1        0.0369
     28 C          -4.0481   57.0402   75.6985 C.3     1  UNL1        0.4187
     29 F          -5.2527   56.6406   76.2873 F       1  UNL1       -0.1659
     30 F          -3.7375   56.1785   74.6411 F       1  UNL1       -0.1659
     31 F          -3.0256   56.9956   76.6522 F       1  UNL1       -0.1659
@<TRIPOS>BOND
     1    22    27   ar
     2    22    23   ar
     3    23    24   ar
     4    24    25   ar
     5    24    28    1
     6    25    26   ar
     7    26    27   ar
     8    26    21    1
     9    21    20    1
    10    20     1    1
    11     1     2    2
    12     1     3   am
    13     3     5    1
    14     5     9   ar
    15     5     6   ar
    16     6     7   ar
    17     7     8   ar
    18     8     9   ar
    19     8    10    1
    20    10    11    1
    21    11    12    1
    22    12    17   ar
    23    12    13   ar
    24    13    14   ar
    25    14    15   ar
    26    15    16   ar
    27    15    18    1
    28    16    17   ar
    29    18    19    3
    30    28    29    1
    31    28    30    1
    32    28    31    1
    33     3     4    1
#	Name:			ZINC23795918
#	Creating user name:	trannguyen
#	Creation time:		Thu Dec  1 16:45:04 2022


#	Modifying user name:	trannguyen
#	Modification time:	Thu Dec  1 16:45:04 2022

@<TRIPOS>MOLECULE
ZINC23795918
 25 26 0 0 0
SMALL
GASTEIGER

@<TRIPOS>ATOM
      1 C           3.8549   64.8180   68.4614 C.2     1  UNL1        0.2614
      2 O           4.4956   64.6790   69.4851 O.2     1  UNL1       -0.2686
      3 N           3.1375   63.7882   67.9705 N.am    1  UNL1       -0.2301
      4 H           2.6186   63.9007   67.1414 H       1  UNL1        0.1731
      5 C           4.7011   67.5248   65.9990 C.ar    1  UNL1       -0.0112
      6 C           3.8820   68.5512   66.4353 C.ar    1  UNL1       -0.0034
      7 C           3.0515   68.3656   67.5261 C.ar    1  UNL1       -0.0001
      8 C           3.0350   67.1541   68.1862 C.ar    1  UNL1        0.0045
      9 C           3.8629   66.1168   67.7549 C.ar    1  UNL1        0.0545
     10 C           4.6946   66.3089   66.6504 C.ar    1  UNL1        0.0011
     11 C           5.6026   67.7359   64.8100 C.3     1  UNL1        0.0838
     12 C           5.8157   68.8243   62.1751 C.3     1  UNL1        0.0695
     13 S           4.8821   68.9950   63.7209 S.3     1  UNL1       -0.1345
     14 N           3.1299   62.5575   68.6399 N.am    1  UNL1       -0.2301
     15 C           1.9937   62.1055   69.2066 C.2     1  UNL1        0.2622
     16 O           0.9754   62.7658   69.1370 O.2     1  UNL1       -0.2686
     17 H           3.9546   62.0227   68.6963 H       1  UNL1        0.1731
     18 C           1.9858   60.8080   69.9124 C.ar    1  UNL1        0.0654
     19 C           2.7605   59.7470   69.4382 C.ar    1  UNL1        0.0063
     20 C           2.7489   58.5385   70.1010 C.ar    1  UNL1        0.0116
     21 C           1.9713   58.3742   71.2362 C.ar    1  UNL1        0.0585
     22 C           1.2008   59.4210   71.7122 C.ar    1  UNL1        0.0229
     23 C           1.2075   60.6385   71.0605 C.ar    1  UNL1        0.0629
     24 CL          0.2469   61.9531   71.6627 Cl      1  UNL1       -0.0821
     25 CL          1.9628   56.8485   72.0646 Cl      1  UNL1       -0.0822
@<TRIPOS>BOND
     1    12    13    1
     2    13    11    1
     3    11     5    1
     4     5    10   ar
     5     5     6   ar
     6     6     7   ar
     7     7     8   ar
     8     8     9   ar
     9     9    10   ar
    10     9     1    1
    11     1     2    2
    12     1     3   am
    13     3    14    1
    14    14    15   am
    15    15    16    2
    16    15    18    1
    17    18    23   ar
    18    18    19   ar
    19    19    20   ar
    20    20    21   ar
    21    21    22   ar
    22    21    25    1
    23    22    23   ar
    24    23    24    1
    25     3     4    1
    26    14    17    1
#	Name:			ZINC23841698
#	Creating user name:	trannguyen
#	Creation time:		Thu Dec  1 16:45:04 2022


#	Modifying user name:	trannguyen
#	Modification time:	Thu Dec  1 16:45:04 2022

@<TRIPOS>MOLECULE
ZINC23841698
 12 13 0 0 0
SMALL
GASTEIGER

@<TRIPOS>ATOM
      1 C          -4.3618   61.1564   74.3294 C.3     1  UNL1        0.2618
      2 N          -4.4382   62.4194   75.0676 N.2     1  UNL1       -0.2599
      3 C          -5.5787   63.0085   75.2249 C.2     1  UNL1        0.2572
      4 C          -5.7137   64.3176   75.9808 C.3     1  UNL1        0.1384
      5 C          -6.4003   65.3104   75.0723 C.2     1  UNL1       -0.0141
      6 C          -7.3314   64.9063   74.2428 C.2     1  UNL1        0.0210
      7 C          -7.7203   63.4531   74.1621 C.3     1  UNL1        0.2382
      8 N          -6.7560   62.4845   74.7135 N.pl3   1  UNL1       -0.1817
      9 C          -7.9954   62.7089   75.4672 C.3     1  UNL1        0.2725
     10 H          -3.6213   62.8198   75.4440 H       1  UNL1        0.3046
     11 C          -9.0088   61.6414   75.4468 C.1     1  UNL1       -0.0278
     12 C          -9.8170   60.7901   75.4304 C.1     1  UNL1       -0.0101
@<TRIPOS>UNITY_ATOM_ATTR
2 1
charge 1
@<TRIPOS>BOND
     1     1     2    1
     2     2     3    2
     3     3     8    1
     4     3     4    1
     5     4     5    1
     6     5     6    2
     7     6     7    1
     8     7     9    1
     9     7     8    1
    10     8     9    1
    11     9    11    1
    12    11    12    3
    13     2    10    1
#	Name:			ZINC23890623
#	Creating user name:	trannguyen
#	Creation time:		Thu Dec  1 16:45:04 2022


#	Modifying user name:	trannguyen
#	Modification time:	Thu Dec  1 16:45:04 2022

@<TRIPOS>MOLECULE
ZINC23890623
 26 28 0 0 0
SMALL
GASTEIGER

@<TRIPOS>ATOM
      1 C          -1.2958   58.0706   76.6652 C.ar    1  UNL1       -0.0109
      2 C          -0.1573   58.8115   76.4022 C.ar    1  UNL1       -0.0033
      3 C          -0.1847   59.8093   75.4501 C.ar    1  UNL1        0.0042
      4 C          -1.3644   60.0712   74.7517 C.ar    1  UNL1        0.0536
      5 C          -2.5110   59.3239   75.0259 C.ar    1  UNL1        0.0042
      6 C          -2.4685   58.3250   75.9766 C.ar    1  UNL1       -0.0033
      7 C          -1.4012   61.1394   73.7303 C.2     1  UNL1        0.2493
      8 O          -1.9466   62.1974   73.9766 O.2     1  UNL1       -0.2699
      9 N          -0.8299   60.9401   72.5259 N.am    1  UNL1       -0.2702
     10 C          -0.0879   59.7046   72.2626 C.3     1  UNL1        0.1155
     11 C          -0.9510   61.9588   71.4802 C.3     1  UNL1        0.1220
     12 C           0.4213   62.3327   70.9818 C.ar    1  UNL1        0.0169
     13 C           1.5153   62.2816   71.8331 C.ar    1  UNL1        0.0014
     14 C           2.7582   62.6337   71.3319 C.ar    1  UNL1        0.0305
     15 C           2.8660   63.0219   70.0080 C.ar    1  UNL1        0.1383
     16 N           1.8027   63.0586   69.2274 N.ar    1  UNL1       -0.2327
     17 C           0.6058   62.7250   69.6702 C.ar    1  UNL1        0.0972
     18 CL          4.4172   63.4651   69.3669 Cl      1  UNL1       -0.0613
     19 C          -1.2585   56.9821   77.7068 C.3     1  UNL1        0.0903
     20 S           0.1197   55.8615   77.3594 S.3     1  UNL1       -0.0837
     21 C          -1.0810   52.3015   73.6989 C.3     1  UNL1        0.0527
     22 C          -1.3124   52.9468   75.0410 C.ar    1  UNL1        0.0670
     23 C          -2.2996   52.5098   75.8588 C.ar    1  UNL1        0.0521
     24 S          -2.0948   53.6146   77.2481 S.2     1  UNL1       -0.0601
     25 C          -0.7541   54.5220   76.6199 C.ar    1  UNL1        0.1363
     26 N          -0.5613   53.9544   75.4438 N.ar    1  UNL1       -0.2363
@<TRIPOS>BOND
     1    21    22    1
     2    22    26   ar
     3    22    23   ar
     4    23    24   ar
     5    24    25   ar
     6    25    26   ar
     7    25    20    1
     8    20    19    1
     9    19     1    1
    10     1     6   ar
    11     1     2   ar
    12     2     3   ar
    13     3     4   ar
    14     4     5   ar
    15     4     7    1
    16     5     6   ar
    17     7     8    2
    18     7     9   am
    19     9    10    1
    20     9    11    1
    21    11    12    1
    22    12    17   ar
    23    12    13   ar
    24    13    14   ar
    25    14    15   ar
    26    15    16   ar
    27    15    18    1
    28    16    17   ar
#	Name:			ZINC24193278
#	Creating user name:	trannguyen
#	Creation time:		Thu Dec  1 16:45:04 2022


#	Modifying user name:	trannguyen
#	Modification time:	Thu Dec  1 16:45:04 2022

@<TRIPOS>MOLECULE
ZINC24193278
 11 11 0 0 0
SMALL
GASTEIGER

@<TRIPOS>ATOM
      1 C           3.6013   67.0539   68.8506 C.3     1  UNL1        0.0006
      2 C           3.3097   67.4509   67.4017 C.3     1  UNL1        0.0072
      3 C           4.6155   67.4654   66.6045 C.3     1  UNL1        0.0847
      4 C           5.0405   66.0288   66.2957 C.3     1  UNL1        0.3157
      5 N           4.4085   65.1319   67.3072 N.2     1  UNL1       -0.1994
      6 C           3.8182   64.0862   66.7477 C.2     1  UNL1        0.3926
      7 N           3.1904   63.1872   67.5457 N.2     1  UNL1       -0.1822
      8 C           3.1256   63.3846   68.8244 C.2     1  UNL1        0.0786
      9 C           3.7329   64.6257   69.4257 C.3     1  UNL1        0.0472
     10 C           2.7874   65.8103   69.2121 C.3     1  UNL1        0.0063
     11 H           4.4280   65.2980   68.2774 H       1  UNL1        0.4485
@<TRIPOS>UNITY_ATOM_ATTR
5 1
charge 1
@<TRIPOS>BOND
     1     1    10    1
     2     1     2    1
     3     2     3    1
     4     3     4    1
     5     4     5    1
     6     5     6    2
     7     6     7    1
     8     7     8    2
     9     8     9    1
    10     9    10    1
    11     5    11    1
#	Name:			ZINC24325212
#	Creating user name:	trannguyen
#	Creation time:		Thu Dec  1 16:45:04 2022


#	Modifying user name:	trannguyen
#	Modification time:	Thu Dec  1 16:45:04 2022

@<TRIPOS>MOLECULE
ZINC24325212
 30 32 0 0 0
SMALL
GASTEIGER

@<TRIPOS>ATOM
      1 C          -0.0860   60.4330   73.2751 C.2     1  UNL1        0.0580
      2 C          -0.1134   60.3316   71.9286 C.2     1  UNL1        0.0071
      3 C           1.0909   60.6370   71.1441 C.ar    1  UNL1        0.0290
      4 C           2.0928   59.7188   70.7507 C.ar    1  UNL1        0.0804
      5 N           2.9942   60.3707   70.0690 N.ar    1  UNL1       -0.1698
      6 N           2.6216   61.7173   69.9927 N.ar    1  UNL1       -0.2340
      7 C           1.4551   61.8751   70.6464 C.ar    1  UNL1        0.0620
      8 C           0.6899   63.1631   70.8090 C.3     1  UNL1        0.0522
      9 C           2.1144   58.2448   71.0636 C.3     1  UNL1        0.0540
     10 C           3.3387   62.7300   69.3401 C.ar    1  UNL1        0.0826
     11 C           3.0835   63.0125   68.0049 C.ar    1  UNL1        0.0214
     12 C           3.7875   64.0137   67.3653 C.ar    1  UNL1        0.0312
     13 C           4.7548   64.7285   68.0517 C.ar    1  UNL1        0.1402
     14 C           5.0143   64.4445   69.3822 C.ar    1  UNL1        0.0312
     15 C           4.3088   63.4477   70.0268 C.ar    1  UNL1        0.0214
     16 F           5.4464   65.7039   67.4228 F       1  UNL1       -0.2042
     17 N          -1.1644   60.0020   75.3704 N.am    1  UNL1       -0.2701
     18 C           0.1288   60.1525   76.0423 C.3     1  UNL1        0.1155
     19 C          -1.2484   60.1382   74.0322 C.2     1  UNL1        0.2495
     20 O          -2.3221   60.0082   73.4733 O.2     1  UNL1       -0.2699
     21 C          -2.3651   59.6975   76.1525 C.3     1  UNL1        0.1235
     22 C          -0.7106   55.2125   77.6300 C.3     1  UNL1        0.0310
     23 C          -1.7532   56.0568   76.9437 C.ar    1  UNL1       -0.0219
     24 C          -2.8728   55.4594   76.3940 C.ar    1  UNL1       -0.0012
     25 C          -3.8299   56.2311   75.7643 C.ar    1  UNL1        0.0363
     26 C          -3.6705   57.6074   75.6894 C.ar    1  UNL1        0.1363
     27 C          -2.5441   58.2036   76.2370 C.ar    1  UNL1        0.0314
     28 C          -1.5892   57.4272   76.8650 C.ar    1  UNL1       -0.0039
     29 O          -4.6139   58.3694   75.0762 O.3     1  UNL1       -0.4717
     30 C          -5.7640   58.7230   75.8471 C.3     1  UNL1        0.2525
@<TRIPOS>BOND
     1    22    23    1
     2    23    28   ar
     3    23    24   ar
     4    24    25   ar
     5    25    26   ar
     6    26    27   ar
     7    26    29    1
     8    27    28   ar
     9    27    21    1
    10    21    17    1
    11    17    18    1
    12    17    19   am
    13    19    20    2
    14    19     1    1
    15     1     2    2
    16     2     3    1
    17     3     7   ar
    18     3     4   ar
    19     4     5   ar
    20     4     9    1
    21     5     6   ar
    22     6     7   ar
    23     6    10    1
    24     7     8    1
    25    10    15   ar
    26    10    11   ar
    27    11    12   ar
    28    12    13   ar
    29    13    14   ar
    30    13    16    1
    31    14    15   ar
    32    29    30    1
#	Name:			ZINC24404182
#	Creating user name:	trannguyen
#	Creation time:		Thu Dec  1 16:45:04 2022


#	Modifying user name:	trannguyen
#	Modification time:	Thu Dec  1 16:45:04 2022

@<TRIPOS>MOLECULE
ZINC24404182
 12 13 0 0 0
SMALL
GASTEIGER

@<TRIPOS>ATOM
      1 N           4.5631   66.8658   67.0304 N.2     1  UNL1       -0.2122
      2 C           3.4374   67.2298   67.7560 C.2     1  UNL1        0.1608
      3 C           2.8505   68.3084   67.2715 C.3     1  UNL1        0.1148
      4 C           3.6576   68.7538   66.0747 C.3     1  UNL1        0.2264
      5 C           4.6703   67.6236   65.9141 C.2     1  UNL1        0.2917
      6 N           5.4027   67.5494   64.8475 N.2     1  UNL1       -0.2579
      7 C           5.1002   68.6203   63.8687 C.3     1  UNL1        0.2409
      8 C           3.5877   68.6846   63.6625 C.3     1  UNL1        0.1955
      9 O           2.8678   68.7808   64.8888 O.3     1  UNL1       -0.3394
     10 H           6.0865   66.8561   64.7029 H       1  UNL1        0.3047
     11 C           5.2039   65.3606   68.8484 C.3     1  UNL1        0.0579
     12 C           5.4995   65.8068   67.4151 C.3     1  UNL1        0.2168
@<TRIPOS>UNITY_ATOM_ATTR
1 1
charge 1
6 1
charge 1
@<TRIPOS>BOND
     1    11    12    1
     2    12     1    1
     3     1     5    1
     4     1     2    2
     5     2     3    1
     6     3     4    1
     7     4     9    1
     8     4     5    1
     9     5     6    2
    10     6     7    1
    11     7     8    1
    12     8     9    1
    13     6    10    1
#	Name:			ZINC24416643
#	Creating user name:	trannguyen
#	Creation time:		Thu Dec  1 16:45:04 2022


#	Modifying user name:	trannguyen
#	Modification time:	Thu Dec  1 16:45:04 2022

@<TRIPOS>MOLECULE
ZINC24416643
 26 29 0 0 0
SMALL
GASTEIGER

@<TRIPOS>ATOM
      1 C          -3.5386   60.6260   74.5843 C.ar    1  UNL1        0.1746
      2 N          -3.8387   61.9025   74.7131 N.ar    1  UNL1       -0.2157
      3 C          -5.0515   62.2823   75.0987 C.ar    1  UNL1        0.1174
      4 C          -6.0653   61.3535   75.3916 C.ar    1  UNL1        0.0810
      5 C          -7.3403   61.9390   75.7970 C.ar    1  UNL1        0.0191
      6 C          -7.4438   63.2885   75.8678 C.ar    1  UNL1        0.0376
      7 S          -5.8247   63.8539   75.3830 S.2     1  UNL1       -0.0673
      8 C          -5.7131   59.9777   75.2380 C.ar    1  UNL1        0.2645
      9 O          -6.5305   59.1024   75.4662 O.2     1  UNL1       -0.2668
     10 N          -4.4666   59.6595   74.8438 N.ar    1  UNL1       -0.2714
     11 C          -8.4933   61.0766   76.1296 C.ar    1  UNL1        0.0302
     12 C          -9.5630   60.7271   75.3494 C.ar    1  UNL1        0.0070
     13 C         -10.5272   59.8969   75.8810 C.ar    1  UNL1        0.0075
     14 C         -10.3929   59.4612   77.1589 C.ar    1  UNL1        0.0354
     15 S          -8.8581   60.2253   77.6560 S.2     1  UNL1       -0.0864
     16 S          -1.9187   60.1609   74.0700 S.3     1  UNL1       -0.0690
     17 C          -1.7056   61.2733   72.6583 C.3     1  UNL1        0.1321
     18 C           2.5053   61.4330   69.8034 C.3     1  UNL1        0.0557
     19 C           1.4151   61.0244   70.7603 C.ar    1  UNL1        0.1007
     20 C           0.2525   61.7609   71.0840 C.ar    1  UNL1        0.0545
     21 C          -0.3952   60.9744   71.9766 C.ar    1  UNL1        0.1654
     22 O           0.3622   59.8804   72.1382 O.2     1  UNL1       -0.3572
     23 N           1.3576   59.9237   71.4528 N.ar    1  UNL1       -0.0817
     24 C          -4.0990   58.2497   74.6898 C.3     1  UNL1        0.1374
     25 C          -3.6429   57.7016   76.0175 C.2     1  UNL1       -0.0016
     26 C          -3.6637   56.4099   76.2349 C.2     1  UNL1       -0.0029
@<TRIPOS>BOND
     1    18    19    1
     2    19    23   ar
     3    19    20   ar
     4    20    21   ar
     5    21    22   ar
     6    21    17    1
     7    22    23   ar
     8    17    16    1
     9    16     1    1
    10     1    10   ar
    11     1     2   ar
    12     2     3   ar
    13     3     7   ar
    14     3     4   ar
    15     4     5   ar
    16     4     8   ar
    17     5     6   ar
    18     5    11    1
    19     6     7   ar
    20    11    15   ar
    21    11    12   ar
    22    12    13   ar
    23    13    14   ar
    24    14    15   ar
    25     8     9    2
    26     8    10   ar
    27    10    24    1
    28    24    25    1
    29    25    26    2
#	Name:			ZINC24521872
#	Creating user name:	trannguyen
#	Creation time:		Thu Dec  1 16:45:04 2022


#	Modifying user name:	trannguyen
#	Modification time:	Thu Dec  1 16:45:04 2022

@<TRIPOS>MOLECULE
ZINC24521872
 13 14 0 0 0
SMALL
GASTEIGER

@<TRIPOS>ATOM
      1 C           4.3029   65.4379   67.9613 C.3     1  UNL1        0.1309
      2 C           5.3568   65.8727   66.9625 C.3     1  UNL1        0.1237
      3 C           4.9451   67.0000   66.4249 C.2     1  UNL1        0.2773
      4 N           3.7100   67.4117   66.9423 N.2     1  UNL1       -0.1798
      5 C           3.2462   66.5241   67.8744 C.2     1  UNL1        0.3039
      6 N           2.1410   66.5950   68.5398 N.4     1  UNL1       -0.0960
      7 O           1.2599   67.6844   68.3351 O.2     1  UNL1       -0.3549
      8 C           3.0894   68.6629   66.4705 C.3     1  UNL1        0.2496
      9 C           3.5366   68.8581   65.0369 C.2     1  UNL1        0.0676
     10 C           4.7080   68.4164   64.6282 C.2     1  UNL1        0.1829
     11 O           5.5596   67.7609   65.4665 O.2     1  UNL1       -0.4206
     12 H           1.9114   65.8916   69.1891 H       1  UNL1        0.3601
     13 H           1.4783   68.3539   67.7170 H       1  UNL1        0.3552
@<TRIPOS>UNITY_ATOM_ATTR
4 1
charge 1
6 1
charge 1
@<TRIPOS>BOND
     1     1     5    1
     2     1     2    1
     3     2     3    1
     4     3    11    1
     5     3     4    2
     6     4     5    1
     7     4     8    1
     8     5     6    2
     9     6     7    1
    10     8     9    1
    11     9    10    2
    12    10    11    1
    13     6    12    1
    14     7    13    1
#	Name:			ZINC24735251
#	Creating user name:	trannguyen
#	Creation time:		Thu Dec  1 16:45:04 2022


#	Modifying user name:	trannguyen
#	Modification time:	Thu Dec  1 16:45:04 2022

@<TRIPOS>MOLECULE
ZINC24735251
 39 43 0 0 0
SMALL
GASTEIGER

@<TRIPOS>ATOM
      1 C          -1.3077   61.5298   72.7804 C.2     1  UNL1        0.2820
      2 O          -1.5657   62.4063   73.5780 O.2     1  UNL1       -0.2684
      3 N          -1.8305   60.2979   72.9404 N.am    1  UNL1       -0.2791
      4 H          -1.5583   59.5660   72.3409 H       1  UNL1        0.1550
      5 C          -2.7611   60.0591   73.9593 C.ar    1  UNL1        0.0507
      6 C          -2.4131   59.2648   75.0454 C.ar    1  UNL1        0.0170
      7 C          -3.3251   59.0303   76.0566 C.ar    1  UNL1        0.0310
      8 C          -4.5937   59.5760   75.9891 C.ar    1  UNL1        0.1431
      9 C          -4.9518   60.3757   74.9009 C.ar    1  UNL1        0.0646
     10 C          -4.0280   60.6154   73.8841 C.ar    1  UNL1        0.0200
     11 F          -5.4843   59.3407   76.9773 F       1  UNL1       -0.2041
     12 C          -6.3059   60.9664   74.8277 C.ar    1  UNL1        0.1684
     13 N          -7.4228   60.3351   74.5331 N.ar    1  UNL1       -0.1290
     14 N          -8.4108   61.1592   74.5695 N.ar    1  UNL1       -0.1333
     15 C          -7.9857   62.3491   74.8897 C.ar    1  UNL1        0.1432
     16 N          -6.6388   62.2694   75.0584 N.ar    1  UNL1       -0.2987
     17 C          -5.7352   63.3721   75.3871 C.3     1  UNL1        0.1087
     18 C          -6.4993   64.4271   76.1923 C.3     1  UNL1        0.0246
     19 C          -7.1361   65.4395   75.2418 C.3     1  UNL1        0.0024
     20 C          -8.1360   64.7521   74.3173 C.3     1  UNL1        0.0080
     21 C          -8.8135   63.5968   75.0604 C.3     1  UNL1        0.0659
     22 C          -0.4024   61.8180   71.6106 C.3     1  UNL1        0.1888
     23 N           0.8562   62.3988   72.0969 N.4     1  UNL1        0.2606
     24 H           0.7275   63.4002   72.2417 H       1  UNL1        0.2042
     25 H           1.1086   61.9406   72.9725 H       1  UNL1        0.2042
     26 C           1.9414   62.1889   71.1291 C.3     1  UNL1        0.0802
     27 C           2.0541   60.7201   70.8116 C.ar    1  UNL1        0.0269
     28 C           2.6151   60.3125   69.6158 C.ar    1  UNL1        0.0012
     29 C           2.7225   58.9650   69.3265 C.ar    1  UNL1       -0.0001
     30 C           2.2602   58.0254   70.2289 C.ar    1  UNL1       -0.0000
     31 C           1.6948   58.4331   71.4227 C.ar    1  UNL1       -0.0001
     32 C           1.5914   59.7805   71.7138 C.ar    1  UNL1        0.0012
     33 C           1.6384   62.9662   69.8467 C.3     1  UNL1        0.0860
     34 C           4.8104   65.7188   69.0661 C.ar    1  UNL1       -0.0000
     35 C           5.0990   64.4153   69.4243 C.ar    1  UNL1       -0.0003
     36 C           4.0725   63.5246   69.6771 C.ar    1  UNL1       -0.0041
     37 C           2.7575   63.9374   69.5716 C.ar    1  UNL1       -0.0161
     38 C           2.4689   65.2396   69.2083 C.ar    1  UNL1       -0.0041
     39 C           3.4954   66.1317   68.9607 C.ar    1  UNL1       -0.0003
@<TRIPOS>UNITY_ATOM_ATTR
23 1
charge 1
@<TRIPOS>BOND
     1    34    39   ar
     2    34    35   ar
     3    35    36   ar
     4    36    37   ar
     5    37    38   ar
     6    37    33    1
     7    38    39   ar
     8    33    26    1
     9    26    27    1
    10    26    23    1
    11    27    32   ar
    12    27    28   ar
    13    28    29   ar
    14    29    30   ar
    15    30    31   ar
    16    31    32   ar
    17    23    22    1
    18    22     1    1
    19     1     2    2
    20     1     3   am
    21     3     5    1
    22     5    10   ar
    23     5     6   ar
    24     6     7   ar
    25     7     8   ar
    26     8     9   ar
    27     8    11    1
    28     9    10   ar
    29     9    12    1
    30    12    16   ar
    31    12    13   ar
    32    13    14   ar
    33    14    15   ar
    34    15    21    1
    35    15    16   ar
    36    16    17    1
    37    17    18    1
    38    18    19    1
    39    19    20    1
    40    20    21    1
    41    23    24    1
    42    23    25    1
    43     3     4    1
#	Name:			ZINC24873595
#	Creating user name:	trannguyen
#	Creation time:		Thu Dec  1 16:45:04 2022


#	Modifying user name:	trannguyen
#	Modification time:	Thu Dec  1 16:45:04 2022

@<TRIPOS>MOLECULE
ZINC24873595
 41 45 0 0 0
SMALL
GASTEIGER

@<TRIPOS>ATOM
      1 N          -1.8221   59.8578   74.5339 N.am    1  UNL1       -0.2681
      2 C          -1.3583   60.2072   73.3176 C.2     1  UNL1        0.3078
      3 O          -2.1173   60.6669   72.4865 O.2     1  UNL1       -0.2522
      4 N          -0.0530   60.0468   73.0226 N.am    1  UNL1       -0.2592
      5 H          -1.2270   59.4100   75.1777 H       1  UNL1        0.1564
      6 C           0.4513   60.4265   71.7005 C.3     1  UNL1        0.0889
      7 C           1.6356   59.5304   71.3278 C.3     1  UNL1        0.0809
      8 C           2.1962   59.9711   69.9738 C.3     1  UNL1        0.1074
      9 N           2.6261   61.3730   70.0536 N.4     1  UNL1        0.2793
     10 C           1.4962   62.2581   70.3638 C.3     1  UNL1        0.1074
     11 C           0.9146   61.8856   71.7294 C.3     1  UNL1        0.0809
     12 H           3.2992   61.4491   70.8162 H       1  UNL1        0.2070
     13 C           3.2964   61.7894   68.8145 C.3     1  UNL1        0.1328
     14 C           3.6972   63.2381   68.9226 C.ar    1  UNL1        0.0333
     15 C           4.9211   63.5766   69.4726 C.ar    1  UNL1        0.0014
     16 C           5.2968   64.9040   69.5761 C.ar    1  UNL1        0.0006
     17 C           4.4520   65.9000   69.1312 C.ar    1  UNL1        0.0103
     18 C           3.2133   65.5660   68.5805 C.ar    1  UNL1        0.0683
     19 C           2.8432   64.2236   68.4734 C.ar    1  UNL1        0.0117
     20 C           2.3290   66.5947   68.1222 C.1     1  UNL1        0.1004
     21 N           1.6274   67.4109   67.7586 N.1     1  UNL1       -0.1908
     22 C          -3.9148   59.1652   75.5417 C.ar    1  UNL1        0.0135
     23 C          -5.2352   59.4478   75.8833 C.ar    1  UNL1        0.0012
     24 C          -5.7801   60.6763   75.5697 C.ar    1  UNL1        0.0001
     25 C          -5.0197   61.6306   74.9163 C.ar    1  UNL1        0.0013
     26 C          -3.7073   61.3641   74.5774 C.ar    1  UNL1        0.0147
     27 C          -3.1479   60.1314   74.8811 C.ar    1  UNL1        0.0515
     28 C          -2.2217   55.3845   76.4990 C.ar    1  UNL1        0.0000
     29 C          -3.2379   55.4676   75.5643 C.ar    1  UNL1        0.0000
     30 C          -3.7912   56.6921   75.2496 C.ar    1  UNL1        0.0000
     31 C          -3.3246   57.8463   75.8760 C.ar    1  UNL1        0.0012
     32 C          -2.2971   57.7573   76.8135 C.ar    1  UNL1        0.0000
     33 C          -1.7546   56.5268   77.1239 C.ar    1  UNL1        0.0000
     34 C           0.8616   59.4928   74.0240 C.3     1  UNL1        0.1556
     35 C           1.1765   60.5608   75.0735 C.3     1  UNL1        0.1272
     36 N           2.3172   60.1241   75.8895 N.4     1  UNL1        0.2771
     37 C           2.1324   60.5092   77.3121 C.3     1  UNL1        0.1056
     38 C           3.0926   59.5546   78.0654 C.3     1  UNL1        0.0670
     39 C           2.9607   58.2345   77.2717 C.3     1  UNL1        0.0670
     40 C           2.4399   58.6502   75.8834 C.3     1  UNL1        0.1056
     41 H           3.1429   60.5682   75.4878 H       1  UNL1        0.2067
@<TRIPOS>UNITY_ATOM_ATTR
9 1
charge 1
36 1
charge 1
@<TRIPOS>BOND
     1    28    33   ar
     2    28    29   ar
     3    29    30   ar
     4    30    31   ar
     5    31    32   ar
     6    31    22    1
     7    32    33   ar
     8    22    27   ar
     9    22    23   ar
    10    23    24   ar
    11    24    25   ar
    12    25    26   ar
    13    26    27   ar
    14    27     1    1
    15     1     2   am
    16     2     3    2
    17     2     4   am
    18     4    34    1
    19     4     6    1
    20    34    35    1
    21    35    36    1
    22    36    40    1
    23    36    37    1
    24    37    38    1
    25    38    39    1
    26    39    40    1
    27     6    11    1
    28     6     7    1
    29     7     8    1
    30     8     9    1
    31     9    10    1
    32     9    13    1
    33    10    11    1
    34    13    14    1
    35    14    19   ar
    36    14    15   ar
    37    15    16   ar
    38    16    17   ar
    39    17    18   ar
    40    18    19   ar
    41    18    20    1
    42    20    21    3
    43     1     5    1
    44    36    41    1
    45     9    12    1
#	Name:			ZINC25098092
#	Creating user name:	trannguyen
#	Creation time:		Thu Dec  1 16:45:04 2022


#	Modifying user name:	trannguyen
#	Modification time:	Thu Dec  1 16:45:04 2022

@<TRIPOS>MOLECULE
ZINC25098092
 29 31 0 0 0
SMALL
GASTEIGER

@<TRIPOS>ATOM
      1 C           2.0546   62.3406   69.1706 C.ar    1  UNL1        0.0327
      2 C           2.3411   61.2608   69.9869 C.ar    1  UNL1        0.0015
      3 C           1.5213   60.9636   71.0559 C.ar    1  UNL1        0.0044
      4 C           0.4006   61.7550   71.3131 C.ar    1  UNL1        0.0537
      5 C           0.1141   62.8396   70.4822 C.ar    1  UNL1        0.0044
      6 C           0.9454   63.1292   69.4200 C.ar    1  UNL1        0.0015
      7 C          -0.4822   61.4426   72.4567 C.2     1  UNL1        0.2495
      8 O          -1.3475   62.2289   72.7892 O.2     1  UNL1       -0.2698
      9 N          -0.3277   60.2859   73.1310 N.am    1  UNL1       -0.2806
     10 H           0.4230   59.6868   72.9149 H       1  UNL1        0.1552
     11 C          -1.2336   59.9368   74.1375 C.ar    1  UNL1        0.0465
     12 C          -2.5693   59.7163   73.8260 C.ar    1  UNL1        0.0144
     13 C          -3.4604   59.3672   74.8213 C.ar    1  UNL1        0.0013
     14 C          -3.0264   59.2471   76.1292 C.ar    1  UNL1       -0.0002
     15 C          -1.6987   59.4710   76.4434 C.ar    1  UNL1       -0.0031
     16 C          -0.8012   59.8154   75.4516 C.ar    1  UNL1       -0.0090
     17 C           0.6456   60.0598   75.7952 C.3     1  UNL1        0.0236
     18 C           0.7354   60.7795   77.1423 C.3     1  UNL1        0.0047
     19 C           1.3823   58.7216   75.8818 C.3     1  UNL1        0.0047
     20 C           2.9550   62.6595   68.0050 C.3     1  UNL1        0.1330
     21 C           2.5895   66.7861   68.9577 C.3     1  UNL1        0.0384
     22 C           3.9135   66.0802   69.2574 C.3     1  UNL1        0.1701
     23 C           3.6862   64.5670   69.3065 C.3     1  UNL1        0.1356
     24 N           3.2394   64.1007   67.9859 N.4     1  UNL1        0.2830
     25 C           4.2339   64.4277   66.9539 C.3     1  UNL1        0.1356
     26 C           4.4556   65.9425   66.9284 C.3     1  UNL1        0.1701
     27 O           4.8593   66.3820   68.2281 O.3     1  UNL1       -0.3467
     28 C           5.5479   66.2818   65.9121 C.3     1  UNL1        0.0384
     29 H           2.3728   64.5867   67.7554 H       1  UNL1        0.2072
@<TRIPOS>UNITY_ATOM_ATTR
24 1
charge 1
@<TRIPOS>BOND
     1    21    22    1
     2    22    27    1
     3    22    23    1
     4    23    24    1
     5    24    25    1
     6    24    20    1
     7    25    26    1
     8    26    27    1
     9    26    28    1
    10    20     1    1
    11     1     6   ar
    12     1     2   ar
    13     2     3   ar
    14     3     4   ar
    15     4     5   ar
    16     4     7    1
    17     5     6   ar
    18     7     8    2
    19     7     9   am
    20     9    11    1
    21    11    16   ar
    22    11    12   ar
    23    12    13   ar
    24    13    14   ar
    25    14    15   ar
    26    15    16   ar
    27    16    17    1
    28    17    18    1
    29    17    19    1
    30    24    29    1
    31     9    10    1
#	Name:			ZINC25262457
#	Creating user name:	trannguyen
#	Creation time:		Thu Dec  1 16:45:04 2022


#	Modifying user name:	trannguyen
#	Modification time:	Thu Dec  1 16:45:04 2022

@<TRIPOS>MOLECULE
ZINC25262457
 24 26 0 0 0
SMALL
GASTEIGER

@<TRIPOS>ATOM
      1 N           4.2782   63.1355   68.9183 N.4     1  UNL1        0.2612
      2 H           4.7985   63.0050   68.0507 H       1  UNL1        0.2042
      3 H           4.4392   62.3531   69.5525 H       1  UNL1        0.2042
      4 C           2.8430   63.2023   68.6123 C.3     1  UNL1        0.1301
      5 C           0.6868   60.7230   71.3456 C.ar    1  UNL1        0.1448
      6 C           0.3118   62.0459   71.1630 C.ar    1  UNL1        0.0373
      7 C           1.0136   62.8465   70.2826 C.ar    1  UNL1        0.0045
      8 C           2.0827   62.3277   69.5757 C.ar    1  UNL1        0.0332
      9 C           2.4591   61.0097   69.7555 C.ar    1  UNL1        0.0111
     10 C           1.7636   60.2056   70.6390 C.ar    1  UNL1        0.0683
     11 BR          2.2783   58.4026   70.8843 Br      1  UNL1       -0.0459
     12 C          -1.1964   60.4766   72.7758 C.3     1  UNL1        0.2525
     13 O           0.0008   59.9347   72.2147 O.3     1  UNL1       -0.4709
     14 C           4.7352   64.3692   69.5716 C.3     1  UNL1        0.1302
     15 C           4.4156   65.5511   68.6928 C.ar    1  UNL1        0.0358
     16 C           3.4627   66.4699   69.0917 C.ar    1  UNL1        0.0047
     17 C           3.1660   67.5542   68.2879 C.ar    1  UNL1        0.0399
     18 C           3.8233   67.7230   67.0782 C.ar    1  UNL1        0.1724
     19 C           4.7827   66.8006   66.6784 C.ar    1  UNL1        0.1723
     20 C           5.0754   65.7142   67.4895 C.ar    1  UNL1        0.0414
     21 O           5.4454   66.9517   65.4991 O.3     1  UNL1       -0.4684
     22 C           4.8624   67.8436   64.5429 C.3     1  UNL1        0.2526
     23 C           4.4582   69.1324   65.2714 C.3     1  UNL1        0.2526
     24 O           3.5143   68.7913   66.2934 O.3     1  UNL1       -0.4684
@<TRIPOS>UNITY_ATOM_ATTR
1 1
charge 1
@<TRIPOS>BOND
     1    12    13    1
     2    13     5    1
     3     5    10   ar
     4     5     6   ar
     5     6     7   ar
     6     7     8   ar
     7     8     9   ar
     8     8     4    1
     9     9    10   ar
    10    10    11    1
    11     4     1    1
    12     1    14    1
    13    14    15    1
    14    15    20   ar
    15    15    16   ar
    16    16    17   ar
    17    17    18   ar
    18    18    24    1
    19    18    19   ar
    20    19    20   ar
    21    19    21    1
    22    21    22    1
    23    22    23    1
    24    23    24    1
    25     1     2    1
    26     1     3    1
#	Name:			ZINC25438626
#	Creating user name:	trannguyen
#	Creation time:		Thu Dec  1 16:45:04 2022


#	Modifying user name:	trannguyen
#	Modification time:	Thu Dec  1 16:45:04 2022

@<TRIPOS>MOLECULE
ZINC25438626
 38 40 0 0 0
SMALL
GASTEIGER

@<TRIPOS>ATOM
      1 N          -3.6395   60.0801   75.6253 N.pl3   1  UNL1       -0.2938
      2 C          -5.0078   60.2961   75.3404 C.ar    1  UNL1        0.1350
      3 C          -5.4724   61.5569   75.0810 C.ar    1  UNL1        0.1277
      4 N          -6.8087   61.7404   74.8068 N.ar    1  UNL1       -0.2689
      5 C          -7.6521   60.6919   74.7992 C.ar    1  UNL1        0.3314
      6 O          -8.8306   60.8735   74.5602 O.2     1  UNL1       -0.2464
      7 N          -7.2113   59.4451   75.0465 N.ar    1  UNL1       -0.2733
      8 C          -5.9114   59.2185   75.3197 C.ar    1  UNL1        0.2771
      9 O          -5.5207   58.0858   75.5475 O.2     1  UNL1       -0.2656
     10 N          -4.6122   62.6308   75.0944 N.pl3   1  UNL1       -0.3427
     11 H          -7.8443   58.6913   75.0276 H       1  UNL1        0.1735
     12 H          -3.6572   62.4942   75.2910 H       1  UNL1        0.1437
     13 H          -4.9517   63.5358   74.9072 H       1  UNL1        0.1437
     14 C          -7.3169   63.0858   74.5277 C.3     1  UNL1        0.1117
     15 C          -7.6477   63.7895   75.8453 C.3     1  UNL1        0.0247
     16 C          -7.3060   65.2764   75.7292 C.3     1  UNL1        0.0020
     17 C          -6.6896   65.5523   74.3563 C.3     1  UNL1        0.0001
     18 C          -3.4743   59.3400   76.8835 C.3     1  UNL1        0.0915
     19 C          -2.0293   58.8515   77.0019 C.3     1  UNL1        0.0214
     20 C          -1.1986   59.8934   77.7538 C.3     1  UNL1        0.0018
     21 C           0.4887   59.1807   76.0545 C.3     1  UNL1        0.0000
     22 C          -0.0446   60.3632   76.8658 C.3     1  UNL1        0.0001
     23 C          -2.9738   59.3860   74.5150 C.3     1  UNL1        0.1802
     24 C          -2.1167   60.3639   73.7532 C.ar    1  UNL1        0.2568
     25 N          -1.1999   60.0680   72.8658 N.ar    1  UNL1       -0.1893
     26 C          -0.7003   61.2539   72.4506 C.ar    1  UNL1        0.2033
     27 N          -1.3308   62.1907   73.1100 N.ar    1  UNL1       -0.0560
     28 O          -2.1455   61.6959   73.8601 O.2     1  UNL1       -0.3352
     29 C           0.3684   61.4545   71.4403 C.ar    1  UNL1        0.0391
     30 C           0.4994   62.6827   70.7955 C.ar    1  UNL1        0.0031
     31 C           1.4973   62.8650   69.8598 C.ar    1  UNL1        0.0040
     32 C           2.3607   61.8283   69.5548 C.ar    1  UNL1        0.0714
     33 C           2.2323   60.6054   70.1884 C.ar    1  UNL1        0.0040
     34 C           1.2406   60.4136   71.1291 C.ar    1  UNL1        0.0031
     35 C           3.4452   62.0316   68.5282 C.3     1  UNL1        0.4186
     36 F           2.8771   62.4883   67.3341 F       1  UNL1       -0.1659
     37 F           4.3623   62.9769   68.9999 F       1  UNL1       -0.1659
     38 F           4.1026   60.8184   68.2979 F       1  UNL1       -0.1659
@<TRIPOS>BOND
     1    21    22    1
     2    22    20    1
     3    20    19    1
     4    19    18    1
     5    18     1    1
     6     1    23    1
     7     1     2    1
     8    23    24    1
     9    24    28   ar
    10    24    25   ar
    11    25    26   ar
    12    26    27   ar
    13    26    29    1
    14    27    28   ar
    15    29    34   ar
    16    29    30   ar
    17    30    31   ar
    18    31    32   ar
    19    32    33   ar
    20    32    35    1
    21    33    34   ar
    22    35    36    1
    23    35    37    1
    24    35    38    1
    25     2     8   ar
    26     2     3   ar
    27     3     4   ar
    28     3    10    1
    29     4     5   ar
    30     4    14    1
    31     5     6    2
    32     5     7   ar
    33     7     8   ar
    34     8     9    2
    35    14    15    1
    36    15    16    1
    37    16    17    1
    38     7    11    1
    39    10    12    1
    40    10    13    1
#	Name:			ZINC25486282
#	Creating user name:	trannguyen
#	Creation time:		Thu Dec  1 16:45:04 2022


#	Modifying user name:	trannguyen
#	Modification time:	Thu Dec  1 16:45:04 2022

@<TRIPOS>MOLECULE
ZINC25486282
 41 44 0 0 0
SMALL
GASTEIGER

@<TRIPOS>ATOM
      1 N           0.9491   61.8227   72.1133 N.4     1  UNL1        0.2634
      2 H           0.1233   62.4097   72.2318 H       1  UNL1        0.2045
      3 H           1.7966   62.3529   72.3157 H       1  UNL1        0.2045
      4 C           1.0106   61.3554   70.7219 C.3     1  UNL1        0.1531
      5 C           1.6798   60.0059   70.6744 C.ar    1  UNL1        0.0356
      6 C           1.2170   58.9766   71.4726 C.ar    1  UNL1        0.0017
      7 C           1.8282   57.7376   71.4258 C.ar    1  UNL1       -0.0001
      8 C           2.9080   57.5306   70.5880 C.ar    1  UNL1       -0.0000
      9 C           3.3737   58.5613   69.7933 C.ar    1  UNL1       -0.0001
     10 C           2.7599   59.7992   69.8370 C.ar    1  UNL1        0.0017
     11 N           2.6722   63.1737   70.4955 N.am    1  UNL1       -0.2790
     12 C           1.8012   62.3376   69.8966 C.2     1  UNL1        0.2801
     13 O           1.6536   62.3756   68.6933 O.2     1  UNL1       -0.2682
     14 H           2.8435   63.0965   71.4619 H       1  UNL1        0.1551
     15 C           3.2879   66.1945   68.4710 C.ar    1  UNL1        0.0359
     16 C           4.6632   66.0761   68.2441 C.ar    1  UNL1        0.0029
     17 C           5.3575   65.0045   68.7649 C.ar    1  UNL1        0.0014
     18 C           4.6994   64.0444   69.5118 C.ar    1  UNL1        0.0147
     19 C           3.3331   64.1518   69.7436 C.ar    1  UNL1        0.0506
     20 C           2.6241   65.2238   69.2259 C.ar    1  UNL1        0.0175
     21 C           3.2732   68.4178   67.1625 C.3     1  UNL1        0.0773
     22 C           2.5431   67.3365   67.9167 C.2     1  UNL1        0.1735
     23 O           1.3419   67.4073   68.0667 O.2     1  UNL1       -0.2913
     24 C           0.8715   60.6905   73.0460 C.3     1  UNL1        0.1304
     25 C          -0.5212   60.6028   73.6150 C.ar    1  UNL1        0.0326
     26 C          -1.6051   60.9913   72.8535 C.ar    1  UNL1        0.0014
     27 C          -2.8841   60.9064   73.3725 C.ar    1  UNL1       -0.0001
     28 C          -3.0841   60.4421   74.6602 C.ar    1  UNL1       -0.0000
     29 C          -2.0074   60.0563   75.4324 C.ar    1  UNL1       -0.0001
     30 C          -0.7167   60.1349   74.9126 C.ar    1  UNL1        0.0015
     31 C           0.4450   59.7221   75.7383 C.ar    1  UNL1       -0.0001
     32 C           0.9852   58.4454   75.5966 C.ar    1  UNL1       -0.0001
     33 C           2.0696   58.0689   76.3628 C.ar    1  UNL1        0.0014
     34 C           2.6124   58.9517   77.2788 C.ar    1  UNL1        0.0327
     35 C           2.0766   60.2183   77.4276 C.ar    1  UNL1        0.0014
     36 C           0.9960   60.6075   76.6623 C.ar    1  UNL1       -0.0001
     37 C           3.7924   58.5325   78.1173 C.3     1  UNL1        0.1333
     38 N           3.7044   57.0940   78.4018 N.4     1  UNL1        0.2884
     39 C           5.0258   56.4581   78.3137 C.3     1  UNL1        0.1678
     40 C           3.0910   56.8535   79.7148 C.3     1  UNL1        0.1678
     41 H           3.1049   56.6705   77.6936 H       1  UNL1        0.2076
@<TRIPOS>UNITY_ATOM_ATTR
1 1
charge 1
38 1
charge 1
@<TRIPOS>BOND
     1    21    22    1
     2    22    23    2
     3    22    15    1
     4    15    20   ar
     5    15    16   ar
     6    16    17   ar
     7    17    18   ar
     8    18    19   ar
     9    19    20   ar
    10    19    11    1
    11    11    12   am
    12    12    13    2
    13    12     4    1
    14     4     5    1
    15     4     1    1
    16     5    10   ar
    17     5     6   ar
    18     6     7   ar
    19     7     8   ar
    20     8     9   ar
    21     9    10   ar
    22     1    24    1
    23    24    25    1
    24    25    30   ar
    25    25    26   ar
    26    26    27   ar
    27    27    28   ar
    28    28    29   ar
    29    29    30   ar
    30    30    31    1
    31    31    36   ar
    32    31    32   ar
    33    32    33   ar
    34    33    34   ar
    35    34    35   ar
    36    34    37    1
    37    35    36   ar
    38    37    38    1
    39    38    39    1
    40    38    40    1
    41    11    14    1
    42     1     2    1
    43     1     3    1
    44    38    41    1
#	Name:			ZINC25666042
#	Creating user name:	trannguyen
#	Creation time:		Thu Dec  1 16:45:04 2022


#	Modifying user name:	trannguyen
#	Modification time:	Thu Dec  1 16:45:04 2022

@<TRIPOS>MOLECULE
ZINC25666042
 28 31 0 0 0
SMALL
GASTEIGER

@<TRIPOS>ATOM
      1 C           1.0223   60.4196   71.9122 C.ar    1  UNL1        0.1108
      2 N           1.5224   61.5367   71.4062 N.ar    1  UNL1       -0.2383
      3 C           2.3840   61.5105   70.4071 C.ar    1  UNL1        0.0895
      4 C           2.7653   60.3060   69.8784 C.ar    1  UNL1        0.0560
      5 S           1.8246   59.1818   70.9025 S.2     1  UNL1       -0.0659
      6 C           2.9309   62.7765   69.8567 C.ar    1  UNL1        0.0313
      7 C           4.3003   63.0804   69.6447 C.ar    1  UNL1        0.0158
      8 C           4.3632   64.3247   69.1354 C.ar    1  UNL1        0.0429
      9 N           3.0905   64.8089   69.0156 N.ar    1  UNL1       -0.2964
     10 C           2.2134   63.8614   69.4627 C.ar    1  UNL1        0.0443
     11 C           0.7127   63.9937   69.5054 C.3     1  UNL1        0.0505
     12 C           5.6238   65.0579   68.7555 C.3     1  UNL1        0.0504
     13 C           2.7432   66.0692   68.5196 C.ar    1  UNL1        0.1892
     14 C           3.4221   67.2939   68.7538 C.ar    1  UNL1        0.0841
     15 C           2.6996   68.2049   68.0624 C.ar    1  UNL1        0.2154
     16 O           1.6914   67.5356   67.4850 O.2     1  UNL1       -0.3487
     17 N           1.7320   66.3550   67.7428 N.ar    1  UNL1       -0.0587
     18 C          -1.7595   59.9121   75.0877 C.ar    1  UNL1        0.1722
     19 C          -2.2129   60.1844   73.8054 C.ar    1  UNL1        0.0401
     20 C          -1.3133   60.3501   72.7732 C.ar    1  UNL1        0.0053
     21 C           0.0569   60.2433   73.0176 C.ar    1  UNL1        0.0270
     22 C           0.5132   59.9639   74.3069 C.ar    1  UNL1        0.0421
     23 C          -0.3936   59.8042   75.3384 C.ar    1  UNL1        0.1724
     24 O           0.0479   59.5365   76.5966 O.3     1  UNL1       -0.4684
     25 C           1.2092   60.2412   77.0401 C.3     1  UNL1        0.2526
     26 O          -2.6501   59.7496   76.1018 O.3     1  UNL1       -0.4724
     27 C          -3.5684   57.5632   75.6354 C.3     1  UNL1        0.0512
     28 C          -3.8617   59.0562   75.7964 C.3     1  UNL1        0.2057
@<TRIPOS>BOND
     1    27    28    1
     2    28    26    1
     3    26    18    1
     4    18    23   ar
     5    18    19   ar
     6    19    20   ar
     7    20    21   ar
     8    21    22   ar
     9    21     1    1
    10    22    23   ar
    11    23    24    1
    12    24    25    1
    13     1     5   ar
    14     1     2   ar
    15     2     3   ar
    16     3     4   ar
    17     3     6    1
    18     4     5   ar
    19     6    10   ar
    20     6     7   ar
    21     7     8   ar
    22     8     9   ar
    23     8    12    1
    24     9    10   ar
    25     9    13    1
    26    10    11    1
    27    13    17   ar
    28    13    14   ar
    29    14    15   ar
    30    15    16   ar
    31    16    17   ar
#	Name:			ZINC26086511
#	Creating user name:	trannguyen
#	Creation time:		Thu Dec  1 16:45:04 2022


#	Modifying user name:	trannguyen
#	Modification time:	Thu Dec  1 16:45:04 2022

@<TRIPOS>MOLECULE
ZINC26086511
 39 42 0 0 0
SMALL
GASTEIGER

@<TRIPOS>ATOM
      1 C          -0.0584   61.2190   72.1616 C.ar    1  UNL1        0.1973
      2 N          -0.2005   62.5202   72.2633 N.ar    1  UNL1       -0.1220
      3 N           0.8227   63.1129   71.7602 N.ar    1  UNL1       -0.1307
      4 C           1.6739   62.2349   71.3101 C.ar    1  UNL1        0.1675
      5 N           1.1467   60.9945   71.5545 N.ar    1  UNL1       -0.2711
      6 C           1.7211   59.7533   71.2440 C.ar    1  UNL1        0.0670
      7 C           2.4592   59.6007   70.0783 C.ar    1  UNL1        0.0176
      8 C           3.0290   58.3786   69.7782 C.ar    1  UNL1        0.0015
      9 C           2.8545   57.3048   70.6316 C.ar    1  UNL1        0.0001
     10 C           2.1149   57.4523   71.7906 C.ar    1  UNL1        0.0015
     11 C           1.5480   58.6735   72.0990 C.ar    1  UNL1        0.0176
     12 S          -1.2000   59.9939   72.7099 S.3     1  UNL1       -0.0669
     13 C          -1.7497   60.7482   74.2607 C.3     1  UNL1        0.1312
     14 C          -1.5344   59.7632   75.4114 C.3     1  UNL1        0.0218
     15 N          -3.9225   61.3516   75.2775 N.am    1  UNL1       -0.2832
     16 C          -3.2136   61.0920   74.1610 C.2     1  UNL1        0.2362
     17 O          -3.7539   61.1350   73.0760 O.2     1  UNL1       -0.2739
     18 H          -3.4686   61.3933   76.1501 H       1  UNL1        0.1549
     19 C          -7.7132   64.4540   74.8580 C.3     1  UNL1        0.0311
     20 C          -7.1683   63.0555   74.9923 C.ar    1  UNL1       -0.0206
     21 C          -8.0340   61.9778   75.0346 C.ar    1  UNL1       -0.0042
     22 C          -7.5378   60.6927   75.1524 C.ar    1  UNL1        0.0010
     23 C          -6.1751   60.4817   75.2332 C.ar    1  UNL1        0.0147
     24 C          -5.3034   61.5620   75.1964 C.ar    1  UNL1        0.0500
     25 C          -5.8052   62.8517   75.0783 C.ar    1  UNL1        0.0104
     26 C           2.9960   62.5294   70.6496 C.3     1  UNL1        0.1568
     27 N           2.8230   63.6028   69.6676 N.am    1  UNL1       -0.2943
     28 C           3.8950   64.2861   69.2203 C.2     1  UNL1        0.2463
     29 O           5.0070   64.0115   69.6322 O.2     1  UNL1       -0.2701
     30 H           1.9236   63.8249   69.3345 H       1  UNL1        0.1501
     31 C           3.7222   65.3582   68.2394 C.2     1  UNL1        0.0578
     32 C           4.8024   65.9710   67.7126 C.2     1  UNL1        0.0069
     33 C           4.6287   67.0486   66.7268 C.ar    1  UNL1        0.0276
     34 C           3.6095   67.9931   66.8892 C.ar    1  UNL1        0.0022
     35 C           3.4530   68.9998   65.9612 C.ar    1  UNL1        0.0001
     36 C           4.3008   69.0796   64.8690 C.ar    1  UNL1        0.0023
     37 C           5.3113   68.1514   64.6988 C.ar    1  UNL1        0.0296
     38 C           5.4863   67.1384   65.6229 C.ar    1  UNL1        0.1401
     39 F           6.4774   66.2350   65.4591 F       1  UNL1       -0.2042
@<TRIPOS>BOND
     1    19    20    1
     2    20    25   ar
     3    20    21   ar
     4    21    22   ar
     5    22    23   ar
     6    23    24   ar
     7    24    25   ar
     8    24    15    1
     9    15    16   am
    10    16    17    2
    11    16    13    1
    12    13    14    1
    13    13    12    1
    14    12     1    1
    15     1     5   ar
    16     1     2   ar
    17     2     3   ar
    18     3     4   ar
    19     4     5   ar
    20     4    26    1
    21     5     6    1
    22     6    11   ar
    23     6     7   ar
    24     7     8   ar
    25     8     9   ar
    26     9    10   ar
    27    10    11   ar
    28    26    27    1
    29    27    28   am
    30    28    29    2
    31    28    31    1
    32    31    32    2
    33    32    33    1
    34    33    38   ar
    35    33    34   ar
    36    34    35   ar
    37    35    36   ar
    38    36    37   ar
    39    37    38   ar
    40    38    39    1
    41    15    18    1
    42    27    30    1
#	Name:			ZINC26506242
#	Creating user name:	trannguyen
#	Creation time:		Thu Dec  1 16:45:04 2022


#	Modifying user name:	trannguyen
#	Modification time:	Thu Dec  1 16:45:04 2022

@<TRIPOS>MOLECULE
ZINC26506242
 34 37 0 0 0
SMALL
GASTEIGER

@<TRIPOS>ATOM
      1 C           1.7110   61.4627   70.6016 C.ar    1  UNL1        0.1653
      2 N           2.7028   60.8569   70.0167 N.ar    1  UNL1       -0.2271
      3 C           2.6668   59.5321   70.3126 C.ar    1  UNL1        0.0985
      4 C           3.4698   58.4439   69.9610 C.ar    1  UNL1        0.0206
      5 C           3.1691   57.1965   70.4296 C.ar    1  UNL1        0.0016
      6 C           2.0717   56.9960   71.2550 C.ar    1  UNL1        0.0016
      7 C           1.2654   58.0546   71.6149 C.ar    1  UNL1        0.0188
      8 C           1.5552   59.3295   71.1479 C.ar    1  UNL1        0.0791
      9 N           0.9745   60.5705   71.3170 N.ar    1  UNL1       -0.3033
     10 C           1.4239   62.9390   70.5057 C.3     1  UNL1        0.2684
     11 O           1.7874   63.4116   69.2070 O.3     1  UNL1       -0.4673
     12 C           4.9008   66.1103   68.9990 C.ar    1  UNL1        0.0002
     13 C           3.5949   66.5542   68.9014 C.ar    1  UNL1        0.0031
     14 C           2.5505   65.6526   68.9709 C.ar    1  UNL1        0.0369
     15 C           2.8129   64.3007   69.1388 C.ar    1  UNL1        0.1392
     16 C           4.1241   63.8578   69.2364 C.ar    1  UNL1        0.0369
     17 C           5.1648   64.7635   69.1663 C.ar    1  UNL1        0.0031
     18 C          -0.2165   60.8702   72.1158 C.3     1  UNL1        0.1942
     19 C           0.0426   60.5142   73.5570 C.2     1  UNL1        0.2611
     20 O          -0.8020   59.9248   74.1974 O.2     1  UNL1       -0.2715
     21 N           1.2129   60.8510   74.1345 N.am    1  UNL1       -0.2320
     22 H           1.8986   61.3296   73.6147 H       1  UNL1        0.1729
     23 N           1.4538   60.5201   75.4744 N.am    1  UNL1       -0.2303
     24 C           2.1125   59.3848   75.7803 C.2     1  UNL1        0.2622
     25 O           2.4977   58.6479   74.8935 O.2     1  UNL1       -0.2686
     26 H           1.1418   61.1170   76.1925 H       1  UNL1        0.1731
     27 C           2.3666   59.0359   77.1935 C.ar    1  UNL1        0.0662
     28 C           3.4902   59.5420   77.8497 C.ar    1  UNL1        0.0168
     29 C           3.7187   59.2164   79.1713 C.ar    1  UNL1        0.0579
     30 C           2.8422   58.3805   79.8436 C.ar    1  UNL1        0.0123
     31 C           1.7304   57.8714   79.1985 C.ar    1  UNL1        0.0124
     32 C           1.4867   58.1934   77.8772 C.ar    1  UNL1        0.0621
     33 CL          0.0902   57.5532   77.0690 Cl      1  UNL1       -0.0821
     34 CL          5.1116   59.8501   79.9910 Cl      1  UNL1       -0.0822
@<TRIPOS>BOND
     1    12    17   ar
     2    12    13   ar
     3    13    14   ar
     4    14    15   ar
     5    15    16   ar
     6    15    11    1
     7    16    17   ar
     8    11    10    1
     9    10     1    1
    10     1     9   ar
    11     1     2   ar
    12     2     3   ar
    13     3     8   ar
    14     3     4   ar
    15     4     5   ar
    16     5     6   ar
    17     6     7   ar
    18     7     8   ar
    19     8     9   ar
    20     9    18    1
    21    18    19    1
    22    19    20    2
    23    19    21   am
    24    21    23    1
    25    23    24   am
    26    24    25    2
    27    24    27    1
    28    27    32   ar
    29    27    28   ar
    30    28    29   ar
    31    29    30   ar
    32    29    34    1
    33    30    31   ar
    34    31    32   ar
    35    32    33    1
    36    21    22    1
    37    23    26    1
#	Name:			ZINC26506868
#	Creating user name:	trannguyen
#	Creation time:		Thu Dec  1 16:45:04 2022


#	Modifying user name:	trannguyen
#	Modification time:	Thu Dec  1 16:45:04 2022

@<TRIPOS>MOLECULE
ZINC26506868
 15 16 0 0 0
SMALL
GASTEIGER

@<TRIPOS>ATOM
      1 C           5.2714   66.3412   66.5126 C.ar    1  UNL1        0.1479
      2 C           4.2912   66.7614   67.4129 C.ar    1  UNL1        0.2213
      3 C           3.5270   67.8990   67.0831 C.ar    1  UNL1        0.2721
      4 N           2.6543   68.0823   68.1260 N.ar    1  UNL1       -0.2142
      5 C           2.8913   67.0962   69.0359 C.ar    1  UNL1        0.3730
      6 N           3.8505   66.3227   68.6173 N.ar    1  UNL1       -0.2270
      7 N           3.7654   68.5243   65.9385 N.ar    1  UNL1       -0.1813
      8 C           4.7030   68.0891   65.1229 C.ar    1  UNL1        0.2383
      9 N           5.4407   67.0278   65.3953 N.ar    1  UNL1       -0.2178
     10 H           1.9803   68.7958   68.2028 H       1  UNL1        0.3132
     11 H           4.2016   65.5401   69.1005 H       1  UNL1        0.3117
     12 C           4.9431   68.8284   63.8319 C.3     1  UNL1        0.4524
     13 F           3.7153   69.1525   63.2448 F       1  UNL1       -0.1632
     14 F           5.6594   70.0016   64.0927 F       1  UNL1       -0.1632
     15 F           5.6775   68.0178   62.9599 F       1  UNL1       -0.1632
@<TRIPOS>UNITY_ATOM_ATTR
4 1
charge 1
@<TRIPOS>BOND
     1     1     9   ar
     2     1     2   ar
     3     2     3   ar
     4     2     6   ar
     5     3     4   ar
     6     3     7   ar
     7     4     5   ar
     8     5     6   ar
     9     7     8   ar
    10     8    12    1
    11     8     9   ar
    12    12    13    1
    13    12    14    1
    14    12    15    1
    15     4    10    1
    16     6    11    1
#	Name:			ZINC26511471
#	Creating user name:	trannguyen
#	Creation time:		Thu Dec  1 16:45:04 2022


#	Modifying user name:	trannguyen
#	Modification time:	Thu Dec  1 16:45:04 2022

@<TRIPOS>MOLECULE
ZINC26511471
 22 24 0 0 0
SMALL
GASTEIGER

@<TRIPOS>ATOM
      1 C          -6.3673   61.3937   75.3237 C.ar    1  UNL1        0.0499
      2 C          -5.5611   60.3842   74.7400 C.ar    1  UNL1        0.1033
      3 N          -6.3550   59.5088   74.1655 N.ar    1  UNL1       -0.1716
      4 N          -7.6824   59.9131   74.3472 N.ar    1  UNL1       -0.2633
      5 C          -7.6846   61.0713   75.0554 C.ar    1  UNL1        0.1199
      6 N          -8.8036   61.7959   75.4427 N.pl3   1  UNL1       -0.3430
      7 H          -8.4793   59.4383   74.0175 H       1  UNL1        0.1903
      8 H          -8.6970   62.6284   75.9572 H       1  UNL1        0.1437
      9 H          -9.7037   61.4772   75.2029 H       1  UNL1        0.1437
     10 C          -4.0797   60.3234   74.7768 C.ar    1  UNL1        0.0195
     11 C          -3.3294   60.9424   73.7785 C.ar    1  UNL1        0.0024
     12 C          -1.9512   60.8874   73.8203 C.ar    1  UNL1        0.0114
     13 C          -1.3139   60.2094   74.8453 C.ar    1  UNL1        0.0577
     14 C          -2.0548   59.5884   75.8364 C.ar    1  UNL1        0.0114
     15 C          -3.4333   59.6420   75.8066 C.ar    1  UNL1        0.0024
     16 CL          0.4200   60.1372   74.8879 Cl      1  UNL1       -0.0822
     17 C          -4.9907   64.7838   77.4867 C.ar    1  UNL1        0.0000
     18 C          -5.2283   64.8837   76.1275 C.ar    1  UNL1        0.0000
     19 C          -5.6753   63.7866   75.4199 C.ar    1  UNL1        0.0001
     20 C          -5.8874   62.5754   76.0777 C.ar    1  UNL1        0.0042
     21 C          -5.6515   62.4824   77.4489 C.ar    1  UNL1        0.0001
     22 C          -5.1988   63.5848   78.1446 C.ar    1  UNL1        0.0000
@<TRIPOS>BOND
     1    17    22   ar
     2    17    18   ar
     3    18    19   ar
     4    19    20   ar
     5    20    21   ar
     6    20     1    1
     7    21    22   ar
     8     1     5   ar
     9     1     2   ar
    10     2     3   ar
    11     2    10    1
    12     3     4   ar
    13     4     5   ar
    14     5     6    1
    15    10    15   ar
    16    10    11   ar
    17    11    12   ar
    18    12    13   ar
    19    13    14   ar
    20    13    16    1
    21    14    15   ar
    22     4     7    1
    23     6     8    1
    24     6     9    1
#	Name:			ZINC26628721
#	Creating user name:	trannguyen
#	Creation time:		Thu Dec  1 16:45:04 2022


#	Modifying user name:	trannguyen
#	Modification time:	Thu Dec  1 16:45:04 2022

@<TRIPOS>MOLECULE
ZINC26628721
 29 32 0 0 0
SMALL
GASTEIGER

@<TRIPOS>ATOM
      1 C          -2.1146   60.6801   73.7296 C.ar    1  UNL1        0.1619
      2 N          -1.2489   60.4950   74.7933 N.ar    1  UNL1       -0.3171
      3 C          -0.0360   60.1759   74.2999 C.ar    1  UNL1        0.1817
      4 S           1.3729   59.8510   75.2167 S.2     1  UNL1       -0.0112
      5 N          -0.1305   60.1591   72.9547 N.ar    1  UNL1       -0.1776
      6 N          -1.4510   60.4865   72.6185 N.ar    1  UNL1       -0.1454
      7 H          -1.4794   60.5816   75.7465 H       1  UNL1        0.1693
      8 C          -4.3522   60.3315   74.6373 C.2     1  UNL1        0.0406
      9 C          -3.5321   61.0391   73.8304 C.2     1  UNL1        0.0417
     10 C          -8.5996   62.9672   74.3548 C.3     1  UNL1        0.0725
     11 C          -7.6349   61.8396   74.6174 C.ar    1  UNL1        0.1233
     12 C          -7.9577   60.6318   75.1248 C.ar    1  UNL1        0.0361
     13 C          -6.7681   59.8860   75.2067 C.ar    1  UNL1        0.0403
     14 C          -5.7675   60.6899   74.7381 C.ar    1  UNL1        0.1450
     15 O          -6.3118   61.8735   74.3901 O.2     1  UNL1       -0.4577
     16 C           0.9527   59.8591   72.0150 C.3     1  UNL1        0.2436
     17 N           1.1255   60.9877   71.0906 N.4     1  UNL1        0.3042
     18 C           2.0539   60.6420   70.0051 C.3     1  UNL1        0.1696
     19 C           2.1449   61.8125   69.0233 C.3     1  UNL1        0.1672
     20 N           2.5987   63.0138   69.7379 N.4     1  UNL1        0.2808
     21 C           1.6704   63.3596   70.8234 C.3     1  UNL1        0.1672
     22 C           1.5793   62.1890   71.8052 C.3     1  UNL1        0.1696
     23 H           0.2172   61.1931   70.6746 H       1  UNL1        0.2095
     24 H           3.5070   62.8083   70.1539 H       1  UNL1        0.2069
     25 C           2.7716   64.1424   68.8135 C.3     1  UNL1        0.0558
     26 C           3.5643   63.6900   67.5698 C.3     1  UNL1        0.0550
     27 C           4.4604   64.9062   67.2274 C.3     1  UNL1        0.0061
     28 C           4.8696   65.4334   68.6251 C.3     1  UNL1        0.0061
     29 C           3.6015   65.2508   69.4845 C.3     1  UNL1        0.0550
@<TRIPOS>UNITY_ATOM_ATTR
17 1
charge 1
20 1
charge 1
@<TRIPOS>BOND
     1    10    11    1
     2    11    15   ar
     3    11    12   ar
     4    12    13   ar
     5    13    14   ar
     6    14    15   ar
     7    14     8    1
     8     8     9    2
     9     9     1    1
    10     1     6   ar
    11     1     2   ar
    12     2     3   ar
    13     3     4    2
    14     3     5   ar
    15     5     6   ar
    16     5    16    1
    17    16    17    1
    18    17    22    1
    19    17    18    1
    20    18    19    1
    21    19    20    1
    22    20    21    1
    23    20    25    1
    24    21    22    1
    25    25    29    1
    26    25    26    1
    27    26    27    1
    28    27    28    1
    29    28    29    1
    30     2     7    1
    31    17    23    1
    32    20    24    1
#	Name:			ZINC26746246
#	Creating user name:	trannguyen
#	Creation time:		Thu Dec  1 16:45:04 2022


#	Modifying user name:	trannguyen
#	Modification time:	Thu Dec  1 16:45:04 2022

@<TRIPOS>MOLECULE
ZINC26746246
 27 30 0 0 0
SMALL
GASTEIGER

@<TRIPOS>ATOM
      1 C           1.2398   60.8915   70.9899 C.2     1  UNL1        0.2389
      2 O           1.7209   59.7896   71.1459 O.2     1  UNL1       -0.2738
      3 N           0.2412   61.3105   71.7922 N.am    1  UNL1       -0.2390
      4 C          -0.2225   60.5047   72.7679 C.2     1  UNL1        0.3067
      5 O           0.2597   59.4001   72.9243 O.2     1  UNL1       -0.2524
      6 N          -1.2211   60.9238   73.5702 N.am    1  UNL1       -0.2841
      7 H          -0.1494   62.2052   71.6655 H       1  UNL1        0.1591
      8 H          -1.6118   61.8185   73.4435 H       1  UNL1        0.1513
      9 C           0.8591   63.0251   69.7851 C.3     1  UNL1        0.0214
     10 C           1.7584   61.7924   69.8989 C.3     1  UNL1        0.1242
     11 S           3.4499   62.3128   70.2972 S.3     1  UNL1       -0.1336
     12 C           3.6919   63.8134   69.3072 C.3     1  UNL1        0.0397
     13 C           3.5074   63.4819   67.8250 C.3     1  UNL1        0.0100
     14 C           3.7115   64.7476   66.9900 C.3     1  UNL1        0.0008
     15 C           2.6872   65.8047   67.4075 C.3     1  UNL1        0.0001
     16 C           2.8716   66.1362   68.8897 C.3     1  UNL1        0.0008
     17 C           2.6675   64.8705   69.7246 C.3     1  UNL1        0.0100
     18 C           4.2846   66.6764   69.1194 C.3     1  UNL1        0.0001
     19 C           5.3088   65.6194   68.7019 C.3     1  UNL1        0.0008
     20 C           5.1244   65.2879   67.2198 C.3     1  UNL1        0.0001
     21 C           5.1048   64.3537   69.5370 C.3     1  UNL1        0.0100
     22 C          -1.7252   60.0478   74.6308 C.3     1  UNL1        0.1241
     23 C          -3.2295   60.1272   74.6751 C.ar    1  UNL1        0.0271
     24 C          -4.0416   61.1486   74.3081 C.ar    1  UNL1        0.0044
     25 C          -5.4096   60.9958   74.4341 C.ar    1  UNL1        0.0072
     26 C          -5.8982   59.8331   74.9308 C.ar    1  UNL1        0.0352
     27 S          -4.4041   58.9033   75.2316 S.2     1  UNL1       -0.0891
@<TRIPOS>BOND
     1     9    10    1
     2    10     1    1
     3    10    11    1
     4     1     2    2
     5     1     3   am
     6     3     4   am
     7     4     5    2
     8     4     6   am
     9     6    22    1
    10    22    23    1
    11    23    27   ar
    12    23    24   ar
    13    24    25   ar
    14    25    26   ar
    15    26    27   ar
    16    11    12    1
    17    12    17    1
    18    12    21    1
    19    12    13    1
    20    13    14    1
    21    14    20    1
    22    14    15    1
    23    15    16    1
    24    16    17    1
    25    16    18    1
    26    18    19    1
    27    19    20    1
    28    19    21    1
    29     3     7    1
    30     6     8    1
#	Name:			ZINC26825394
#	Creating user name:	trannguyen
#	Creation time:		Thu Dec  1 16:45:04 2022


#	Modifying user name:	trannguyen
#	Modification time:	Thu Dec  1 16:45:04 2022

@<TRIPOS>MOLECULE
ZINC26825394
 35 38 0 0 0
SMALL
GASTEIGER

@<TRIPOS>ATOM
      1 C          -2.9687   60.9834   74.2348 C.2     1  UNL1        0.2362
      2 O          -3.4826   61.0251   73.1369 O.2     1  UNL1       -0.2739
      3 N          -3.7323   61.0853   75.3406 N.am    1  UNL1       -0.2820
      4 H          -3.3097   61.1200   76.2292 H       1  UNL1        0.1549
      5 C          -5.1262   61.1416   75.2259 C.ar    1  UNL1        0.0682
      6 C          -5.7500   62.3385   74.9040 C.ar    1  UNL1        0.0201
      7 C          -7.1264   62.3929   74.7968 C.ar    1  UNL1        0.0727
      8 C          -7.8855   61.2542   74.9981 C.ar    1  UNL1        0.0055
      9 C          -7.2723   60.0568   75.3130 C.ar    1  UNL1        0.0204
     10 C          -5.8915   59.9940   75.4287 C.ar    1  UNL1        0.0980
     11 N          -5.2669   58.7796   75.7482 N.ar    1  UNL1       -0.2067
     12 C          -5.2662   58.1622   76.9454 C.ar    1  UNL1        0.2017
     13 N          -4.5763   57.0560   76.8305 N.ar    1  UNL1       -0.2004
     14 C          -4.1161   56.9373   75.5858 C.ar    1  UNL1        0.2214
     15 N          -4.5124   57.9680   74.8853 N.ar    1  UNL1       -0.1408
     16 C          -7.8023   63.6954   74.4537 C.3     1  UNL1        0.4186
     17 F          -6.8329   64.6792   74.2305 F       1  UNL1       -0.1659
     18 F          -8.6278   64.0860   75.5136 F       1  UNL1       -0.1659
     19 F          -8.5737   63.5304   73.2983 F       1  UNL1       -0.1659
     20 C          -1.1561   60.0508   75.6470 C.3     1  UNL1        0.0218
     21 C          -1.4762   60.8178   74.3624 C.3     1  UNL1        0.1303
     22 S          -0.8460   59.8943   72.9339 S.3     1  UNL1       -0.0782
     23 C          -0.2389   61.1452   71.8517 C.ar    1  UNL1        0.1610
     24 N          -0.7548   62.3250   71.5648 N.ar    1  UNL1       -0.1331
     25 N          -0.1061   63.1598   70.6845 N.ar    1  UNL1       -0.1252
     26 C           1.0222   62.7724   70.1228 C.ar    1  UNL1        0.1832
     27 S           1.2357   61.1519   70.8434 S.2     1  UNL1       -0.0245
     28 N           1.8296   63.4450   69.2132 N.pl3   1  UNL1       -0.3053
     29 H           1.4369   64.1145   68.6075 H       1  UNL1        0.1491
     30 C           3.2651   63.1578   69.1556 C.3     1  UNL1        0.1542
     31 C           3.9668   64.2545   68.3966 C.ar    1  UNL1        0.1428
     32 C           5.0280   64.9572   68.8315 C.ar    1  UNL1        0.0379
     33 C           5.3583   65.8755   67.8085 C.ar    1  UNL1        0.0435
     34 C           4.4791   65.6789   66.8096 C.ar    1  UNL1        0.1792
     35 O           3.6422   64.6919   67.1691 O.2     1  UNL1       -0.4530
@<TRIPOS>BOND
     1    20    21    1
     2    21     1    1
     3    21    22    1
     4     1     2    2
     5     1     3   am
     6     3     5    1
     7     5    10   ar
     8     5     6   ar
     9     6     7   ar
    10     7     8   ar
    11     7    16    1
    12     8     9   ar
    13     9    10   ar
    14    10    11    1
    15    11    15   ar
    16    11    12   ar
    17    12    13   ar
    18    13    14   ar
    19    14    15   ar
    20    16    17    1
    21    16    18    1
    22    16    19    1
    23    22    23    1
    24    23    27   ar
    25    23    24   ar
    26    24    25   ar
    27    25    26   ar
    28    26    27   ar
    29    26    28    1
    30    28    30    1
    31    30    31    1
    32    31    35   ar
    33    31    32   ar
    34    32    33   ar
    35    33    34   ar
    36    34    35   ar
    37     3     4    1
    38    28    29    1
#	Name:			ZINC26938851
#	Creating user name:	trannguyen
#	Creation time:		Thu Dec  1 16:45:04 2022


#	Modifying user name:	trannguyen
#	Modification time:	Thu Dec  1 16:45:04 2022

@<TRIPOS>MOLECULE
ZINC26938851
 20 23 0 0 0
SMALL
GASTEIGER

@<TRIPOS>ATOM
      1 N           3.8020   67.8036   67.2583 N.4     1  UNL1        0.2833
      2 C           2.8604   67.2080   68.2147 C.3     1  UNL1        0.1110
      3 C           3.6262   66.3280   69.2056 C.3     1  UNL1        0.1172
      4 C           4.3719   65.2346   68.4373 C.3     1  UNL1        0.1986
      5 C           5.3064   65.8764   67.4093 C.3     1  UNL1        0.1172
      6 C           4.4890   66.7701   66.4734 C.3     1  UNL1        0.1110
      7 O           5.1412   64.4425   69.3559 O.3     1  UNL1       -0.3312
      8 C           4.3000   63.3023   69.6551 C.3     1  UNL1        0.1767
      9 C           3.6082   63.0546   68.2913 C.3     1  UNL1        0.1767
     10 O           3.4297   64.3870   67.7690 O.3     1  UNL1       -0.3312
     11 H           4.5091   68.3086   67.7925 H       1  UNL1        0.2072
     12 C           3.1227   68.7664   66.3809 C.3     1  UNL1        0.1944
     13 C           4.4170   68.9173   63.0357 C.ar    1  UNL1        0.1802
     14 N           3.3855   68.7215   63.8763 N.ar    1  UNL1       -0.1899
     15 C           3.8771   68.8810   65.0814 C.ar    1  UNL1        0.2923
     16 O           5.1751   69.1650   64.9370 O.2     1  UNL1       -0.3312
     17 N           5.4638   69.1810   63.7591 N.ar    1  UNL1       -0.0604
     18 C           3.0145   68.5475   60.8822 C.3     1  UNL1        0.0081
     19 C           4.1065   67.4761   60.8985 C.3     1  UNL1        0.0081
     20 C           4.3678   68.8443   61.5313 C.3     1  UNL1        0.0621
@<TRIPOS>UNITY_ATOM_ATTR
1 1
charge 1
@<TRIPOS>BOND
     1    18    20    1
     2    18    19    1
     3    19    20    1
     4    20    13    1
     5    13    17   ar
     6    13    14   ar
     7    14    15   ar
     8    15    16   ar
     9    15    12    1
    10    16    17   ar
    11    12     1    1
    12     1     6    1
    13     1     2    1
    14     2     3    1
    15     3     4    1
    16     4    10    1
    17     4     5    1
    18     4     7    1
    19     5     6    1
    20     7     8    1
    21     8     9    1
    22     9    10    1
    23     1    11    1
#	Name:			ZINC26964647
#	Creating user name:	trannguyen
#	Creation time:		Thu Dec  1 16:45:04 2022


#	Modifying user name:	trannguyen
#	Modification time:	Thu Dec  1 16:45:04 2022

@<TRIPOS>MOLECULE
ZINC26964647
 29 31 0 0 0
SMALL
GASTEIGER

@<TRIPOS>ATOM
      1 C          -0.9282   60.2741   74.3043 C.ar    1  UNL1        0.0592
      2 C          -2.1141   60.2042   74.9817 C.ar    1  UNL1        0.1035
      3 N          -3.0768   60.7250   74.1927 N.ar    1  UNL1       -0.2281
      4 N          -2.5116   61.1469   72.9854 N.ar    1  UNL1       -0.1650
      5 C          -1.2199   60.8982   73.0111 C.ar    1  UNL1        0.1043
      6 C          -0.2449   61.1886   71.9330 C.ar    1  UNL1        0.0195
      7 C          -0.3477   62.3675   71.1958 C.ar    1  UNL1        0.0021
      8 C           0.5587   62.6301   70.1893 C.ar    1  UNL1        0.0067
      9 C           1.5757   61.7308   69.9184 C.ar    1  UNL1        0.0346
     10 C           1.6824   60.5589   70.6473 C.ar    1  UNL1        0.0067
     11 C           0.7778   60.2837   71.6522 C.ar    1  UNL1        0.0021
     12 BR          2.8187   62.1008   68.5423 Br      1  UNL1       -0.0490
     13 C          -4.4323   60.8265   74.5305 C.ar    1  UNL1        0.0828
     14 C          -5.2260   59.6878   74.5734 C.ar    1  UNL1        0.0191
     15 C          -6.5612   59.7908   74.9111 C.ar    1  UNL1        0.0015
     16 C          -7.1103   61.0274   75.1966 C.ar    1  UNL1        0.0001
     17 C          -6.3238   62.1638   75.1501 C.ar    1  UNL1        0.0015
     18 C          -4.9867   62.0670   74.8177 C.ar    1  UNL1        0.0191
     19 N           1.1125   60.5875   75.5323 N.2     1  UNL1       -0.1783
     20 C           0.3879   59.8141   74.7832 C.2     1  UNL1        0.1207
     21 N           2.4058   60.1944   75.9008 N.am    1  UNL1       -0.2178
     22 H           3.1287   60.1921   75.2325 H       1  UNL1        0.1762
     23 C           2.6602   59.8194   77.1701 C.2     1  UNL1        0.1507
     24 S           1.5969   60.2833   78.4291 S.2     1  UNL1       -0.0172
     25 N           3.7517   59.0793   77.4482 N.am    1  UNL1       -0.3111
     26 H           4.6305   59.5133   77.5399 H       1  UNL1        0.1488
     27 C           3.6302   57.6287   77.6141 C.3     1  UNL1        0.1153
     28 C           4.8119   57.1761   75.5260 C.2     1  UNL1       -0.0032
     29 C           3.7567   56.9573   76.2709 C.2     1  UNL1       -0.0050
@<TRIPOS>BOND
     1    28    29    2
     2    29    27    1
     3    27    25    1
     4    25    23    1
     5    23    24    2
     6    23    21    1
     7    21    19    1
     8    19    20    2
     9    20     1    1
    10     1     5   ar
    11     1     2   ar
    12     2     3   ar
    13     3     4   ar
    14     3    13    1
    15     4     5   ar
    16     5     6    1
    17     6    11   ar
    18     6     7   ar
    19     7     8   ar
    20     8     9   ar
    21     9    10   ar
    22     9    12    1
    23    10    11   ar
    24    13    18   ar
    25    13    14   ar
    26    14    15   ar
    27    15    16   ar
    28    16    17   ar
    29    17    18   ar
    30    25    26    1
    31    21    22    1
#	Name:			ZINC27004004
#	Creating user name:	trannguyen
#	Creation time:		Thu Dec  1 16:45:04 2022


#	Modifying user name:	trannguyen
#	Modification time:	Thu Dec  1 16:45:04 2022

@<TRIPOS>MOLECULE
ZINC27004004
 28 30 0 0 0
SMALL
GASTEIGER

@<TRIPOS>ATOM
      1 N          -0.9973   60.3887   72.5570 N.2     1  UNL1       -0.2223
      2 C          -0.8814   60.1532   73.8508 C.ar    1  UNL1        0.1758
      3 N          -1.8510   59.8042   74.7612 N.ar    1  UNL1       -0.2984
      4 C          -1.4873   59.6099   76.0647 C.ar    1  UNL1        0.0696
      5 C          -0.1985   59.7627   76.4281 C.ar    1  UNL1        0.0556
      6 S           0.5779   60.1959   74.8796 S.2     1  UNL1       -0.0483
      7 C          -2.5046   59.2329   77.0727 C.ar    1  UNL1        0.0289
      8 C          -3.2161   60.1169   77.9245 C.ar    1  UNL1        0.0151
      9 C          -4.0389   59.3690   78.6831 C.ar    1  UNL1        0.0338
     10 N          -3.8722   58.0587   78.3425 N.ar    1  UNL1       -0.3596
     11 C          -2.9379   57.9730   77.3530 C.ar    1  UNL1        0.0351
     12 C          -2.4652   56.7056   76.6888 C.3     1  UNL1        0.0498
     13 C          -4.9852   59.8916   79.7331 C.3     1  UNL1        0.0498
     14 H          -4.3493   57.2979   78.7460 H       1  UNL1        0.1653
     15 C           1.5550   62.1465   70.6264 C.ar    1  UNL1       -0.0207
     16 C           2.3820   61.0930   70.2773 C.ar    1  UNL1       -0.0042
     17 C           2.0788   59.8040   70.6788 C.ar    1  UNL1        0.0012
     18 C           0.9547   59.5618   71.4406 C.ar    1  UNL1        0.0191
     19 C           0.1182   60.6211   71.8017 C.ar    1  UNL1        0.0831
     20 C           0.4278   61.9197   71.3876 C.ar    1  UNL1        0.0149
     21 C           3.3265   63.5818   69.6513 C.3     1  UNL1        0.0050
     22 C           1.8909   63.5459   70.1792 C.3     1  UNL1        0.0264
     23 C          -3.2459   59.6443   74.3428 C.3     1  UNL1        0.1932
     24 C          -3.9804   60.9461   74.5350 C.2     1  UNL1        0.2457
     25 O          -3.3744   61.9958   74.4950 O.2     1  UNL1       -0.2730
     26 N          -5.3107   60.9436   74.7514 N.am    1  UNL1       -0.3011
     27 C          -6.0247   62.2092   74.9383 C.3     1  UNL1        0.1107
     28 H          -5.8026   60.0915   74.7837 H       1  UNL1        0.1495
@<TRIPOS>BOND
     1    21    22    1
     2    22    15    1
     3    15    20   ar
     4    15    16   ar
     5    16    17   ar
     6    17    18   ar
     7    18    19   ar
     8    19    20   ar
     9    19     1    1
    10     1     2    2
    11     2     6   ar
    12     2     3   ar
    13     3     4   ar
    14     3    23    1
    15     4     5   ar
    16     4     7    1
    17     5     6   ar
    18     7    11   ar
    19     7     8   ar
    20     8     9   ar
    21     9    10   ar
    22     9    13    1
    23    10    11   ar
    24    11    12    1
    25    23    24    1
    26    24    25    2
    27    24    26   am
    28    26    27    1
    29    10    14    1
    30    26    28    1
#	Name:			ZINC27171657
#	Creating user name:	trannguyen
#	Creation time:		Thu Dec  1 16:45:04 2022


#	Modifying user name:	trannguyen
#	Modification time:	Thu Dec  1 16:45:04 2022

@<TRIPOS>MOLECULE
ZINC27171657
 39 41 0 0 0
SMALL
GASTEIGER

@<TRIPOS>ATOM
      1 C          -1.2389   59.8568   75.4727 C.2     1  UNL1        0.2406
      2 O          -2.2921   60.4428   75.6075 O.2     1  UNL1       -0.2733
      3 N          -0.6885   59.7328   74.2487 N.am    1  UNL1       -0.2991
      4 H           0.1664   59.2571   74.1394 H       1  UNL1        0.1498
      5 C          -0.5456   59.2673   76.6739 C.3     1  UNL1        0.1497
      6 N          -0.0870   57.9125   76.3569 N.am    1  UNL1       -0.2826
      7 C          -0.8136   56.8465   76.7470 C.2     1  UNL1        0.3013
      8 O          -1.8497   57.0093   77.3622 O.2     1  UNL1       -0.2528
      9 N          -0.3918   55.6001   76.4553 N.am    1  UNL1       -0.2848
     10 H           0.7519   57.7807   75.8588 H       1  UNL1        0.1514
     11 H           0.4472   55.4683   75.9572 H       1  UNL1        0.1513
     12 C          -1.1816   54.4415   76.8795 C.3     1  UNL1        0.1177
     13 C          -0.6971   53.2113   76.1563 C.ar    1  UNL1       -0.0024
     14 C          -1.3009   52.8217   74.9752 C.ar    1  UNL1       -0.0003
     15 C          -0.8542   51.6964   74.3087 C.ar    1  UNL1        0.0294
     16 C           0.1915   50.9534   74.8296 C.ar    1  UNL1        0.1401
     17 C           0.7920   51.3416   76.0153 C.ar    1  UNL1        0.0294
     18 C           0.3471   52.4701   76.6774 C.ar    1  UNL1       -0.0003
     19 F           0.6259   49.8506   74.1813 F       1  UNL1       -0.2042
     20 C           0.6558   60.1378   77.0476 C.3     1  UNL1        0.0290
     21 C           3.0802   59.6000   77.3229 C.3     1  UNL1        0.0001
     22 C           1.6685   59.3003   77.8312 C.3     1  UNL1        0.0022
     23 C          -1.3625   60.3059   73.0810 C.3     1  UNL1        0.1165
     24 C          -0.3323   60.7679   72.0829 C.ar    1  UNL1        0.0006
     25 C          -0.4668   62.0016   71.4738 C.ar    1  UNL1        0.0007
     26 C           0.4758   62.4302   70.5579 C.ar    1  UNL1        0.0398
     27 C           1.5583   61.6226   70.2484 C.ar    1  UNL1        0.1727
     28 C           1.6907   60.3783   70.8572 C.ar    1  UNL1        0.1721
     29 C           0.7453   59.9572   71.7788 C.ar    1  UNL1        0.0374
     30 O           2.7485   59.5797   70.5527 O.3     1  UNL1       -0.4684
     31 C           2.5961   58.1800   70.7971 C.3     1  UNL1        0.2526
     32 O           2.4866   62.0427   69.3476 O.3     1  UNL1       -0.4675
     33 C           3.6289   62.7279   69.8649 C.3     1  UNL1        0.2337
     34 C           4.0416   63.8129   68.9040 C.ar    1  UNL1        0.0403
     35 C           4.9651   64.7746   69.2854 C.ar    1  UNL1        0.0025
     36 C           5.3113   65.7565   68.3701 C.ar    1  UNL1        0.0205
     37 C           4.7369   65.7381   67.1130 C.ar    1  UNL1        0.0989
     38 N           3.8619   64.8079   66.7848 N.ar    1  UNL1       -0.2425
     39 C           3.5050   63.8619   67.6315 C.ar    1  UNL1        0.0982
@<TRIPOS>BOND
     1    21    22    1
     2    22    20    1
     3    20     5    1
     4     5     1    1
     5     5     6    1
     6     1     2    2
     7     1     3   am
     8     3    23    1
     9    23    24    1
    10    24    29   ar
    11    24    25   ar
    12    25    26   ar
    13    26    27   ar
    14    27    28   ar
    15    27    32    1
    16    28    29   ar
    17    28    30    1
    18    30    31    1
    19    32    33    1
    20    33    34    1
    21    34    39   ar
    22    34    35   ar
    23    35    36   ar
    24    36    37   ar
    25    37    38   ar
    26    38    39   ar
    27     6     7   am
    28     7     8    2
    29     7     9   am
    30     9    12    1
    31    12    13    1
    32    13    18   ar
    33    13    14   ar
    34    14    15   ar
    35    15    16   ar
    36    16    17   ar
    37    16    19    1
    38    17    18   ar
    39     3     4    1
    40     6    10    1
    41     9    11    1
#	Name:			ZINC27218182
#	Creating user name:	trannguyen
#	Creation time:		Thu Dec  1 16:45:04 2022


#	Modifying user name:	trannguyen
#	Modification time:	Thu Dec  1 16:45:04 2022

@<TRIPOS>MOLECULE
ZINC27218182
 37 39 0 0 0
SMALL
GASTEIGER

@<TRIPOS>ATOM
      1 C           2.5315   61.9694   69.3840 C.ar    1  UNL1        0.0358
      2 C           2.9021   60.6483   69.2148 C.ar    1  UNL1        0.0047
      3 C           2.4509   59.6824   70.0948 C.ar    1  UNL1        0.0399
      4 C           1.6252   60.0375   71.1494 C.ar    1  UNL1        0.1729
      5 C           1.2475   61.3664   71.3165 C.ar    1  UNL1        0.1723
      6 C           1.7081   62.3304   70.4342 C.ar    1  UNL1        0.0414
      7 O           0.4329   61.7189   72.3468 O.3     1  UNL1       -0.4684
      8 C          -0.9753   61.6381   72.1172 C.3     1  UNL1        0.2526
      9 C           3.0268   63.0185   68.4221 C.3     1  UNL1        0.1299
     10 N           2.6288   64.3490   68.9010 N.4     1  UNL1        0.2567
     11 H           2.0989   64.8221   68.1691 H       1  UNL1        0.2040
     12 H           2.0581   64.2355   69.7388 H       1  UNL1        0.2040
     13 C           3.8055   65.1592   69.2424 C.3     1  UNL1        0.0760
     14 C           5.0036   64.2401   69.4888 C.3     1  UNL1        0.0660
     15 C           6.4826   66.6213   65.1648 C.3     1  UNL1        0.0381
     16 C           5.4155   66.6913   66.2266 C.ar    1  UNL1        0.0072
     17 C           5.1652   65.8305   67.2434 C.ar    1  UNL1        0.0035
     18 C           4.1173   66.0967   68.1045 C.ar    1  UNL1        0.0287
     19 C           3.3777   67.2166   67.9134 C.ar    1  UNL1        0.0086
     20 S           4.1569   67.9327   66.4756 S.2     1  UNL1       -0.0957
     21 C           2.2025   67.7248   68.7080 C.3     1  UNL1        0.0380
     22 O           1.1805   59.0885   72.0160 O.3     1  UNL1       -0.4625
     23 C           1.8994   57.8541   72.0514 C.3     1  UNL1        0.2898
     24 C           2.2092   57.4939   73.4816 C.2     1  UNL1        0.2707
     25 O           1.9753   56.3760   73.8898 O.2     1  UNL1       -0.2707
     26 N           2.7514   58.4125   74.3055 N.am    1  UNL1       -0.2809
     27 H           3.0069   59.2970   73.9565 H       1  UNL1        0.1550
     28 C           2.9510   58.1091   75.6567 C.ar    1  UNL1        0.0543
     29 C           3.9418   57.2097   76.0291 C.ar    1  UNL1        0.0146
     30 C           4.1396   56.9161   77.3638 C.ar    1  UNL1        0.0013
     31 C           3.3457   57.5090   78.3288 C.ar    1  UNL1        0.0000
     32 C           2.3552   58.4007   77.9610 C.ar    1  UNL1        0.0051
     33 C           2.1555   58.7023   76.6279 C.ar    1  UNL1        0.0848
     34 C           1.0750   59.6736   76.2279 C.3     1  UNL1        0.4197
     35 F           0.0761   58.9951   75.5215 F       1  UNL1       -0.1658
     36 F           0.5225   60.2547   77.3744 F       1  UNL1       -0.1658
     37 F           1.6232   60.6729   75.4166 F       1  UNL1       -0.1658
@<TRIPOS>UNITY_ATOM_ATTR
10 1
charge 1
@<TRIPOS>BOND
     1    15    16    1
     2    16    20   ar
     3    16    17   ar
     4    17    18   ar
     5    18    19   ar
     6    18    13    1
     7    19    20   ar
     8    19    21    1
     9    13    14    1
    10    13    10    1
    11    10     9    1
    12     9     1    1
    13     1     6   ar
    14     1     2   ar
    15     2     3   ar
    16     3     4   ar
    17     4     5   ar
    18     4    22    1
    19     5     6   ar
    20     5     7    1
    21     7     8    1
    22    22    23    1
    23    23    24    1
    24    24    25    2
    25    24    26   am
    26    26    28    1
    27    28    33   ar
    28    28    29   ar
    29    29    30   ar
    30    30    31   ar
    31    31    32   ar
    32    32    33   ar
    33    33    34    1
    34    34    35    1
    35    34    36    1
    36    34    37    1
    37    10    11    1
    38    10    12    1
    39    26    27    1
#	Name:			ZINC27221868
#	Creating user name:	trannguyen
#	Creation time:		Thu Dec  1 16:45:04 2022


#	Modifying user name:	trannguyen
#	Modification time:	Thu Dec  1 16:45:04 2022

@<TRIPOS>MOLECULE
ZINC27221868
 35 38 0 0 0
SMALL
GASTEIGER

@<TRIPOS>ATOM
      1 C           1.6186   62.5351   69.8010 C.3     1  UNL1        0.1295
      2 C          -0.8006   60.3277   72.5464 C.ar    1  UNL1        0.1391
      3 C           0.4012   59.7987   72.0986 C.ar    1  UNL1        0.0368
      4 C           1.1784   60.5116   71.2064 C.ar    1  UNL1        0.0045
      5 C           0.7654   61.7567   70.7691 C.ar    1  UNL1        0.0327
      6 C          -0.4292   62.2884   71.2183 C.ar    1  UNL1        0.0045
      7 C          -1.2131   61.5768   72.1058 C.ar    1  UNL1        0.0368
      8 O          -1.5700   59.6256   73.4195 O.3     1  UNL1       -0.4689
      9 C          -1.8557   60.2447   74.6753 C.3     1  UNL1        0.2524
     10 C          -7.5279   62.1620   74.9861 C.ar    1  UNL1        0.0046
     11 C          -7.8031   60.7867   75.0641 C.ar    1  UNL1        0.0191
     12 C          -6.7969   59.8879   75.0300 C.ar    1  UNL1        0.0815
     13 N          -5.5001   60.3003   74.9246 N.ar    1  UNL1       -0.2876
     14 C          -4.3141   59.6200   74.8690 C.ar    1  UNL1        0.0999
     15 C          -3.3307   60.5405   74.7656 C.ar    1  UNL1        0.1217
     16 N          -3.8832   61.7558   74.7567 N.ar    1  UNL1       -0.2271
     17 C          -5.1999   61.6358   74.8521 C.ar    1  UNL1        0.1476
     18 C          -6.2395   62.5867   74.8870 C.ar    1  UNL1        0.0374
     19 N           1.5229   63.9685   70.1072 N.4     1  UNL1        0.2536
     20 H           1.5125   64.0934   71.1195 H       1  UNL1        0.2036
     21 H           0.6647   64.3326   69.6933 H       1  UNL1        0.2036
     22 C           2.6630   64.7043   69.5442 C.3     1  UNL1        0.0532
     23 C           2.1808   66.0472   68.9918 C.3     1  UNL1        0.0634
     24 C           3.3681   66.8134   68.4055 C.3     1  UNL1        0.1011
     25 C           3.9968   65.9939   67.2767 C.3     1  UNL1        0.0174
     26 C           4.4790   64.6510   67.8290 C.3     1  UNL1        0.1011
     27 C           3.2916   63.8847   68.4153 C.3     1  UNL1        0.0634
     28 C           5.5200   64.8940   68.9236 C.3     1  UNL1        0.3977
     29 F           6.7643   65.1466   68.3361 F       1  UNL1       -0.1701
     30 F           5.1365   65.9958   69.6957 F       1  UNL1       -0.1701
     31 F           5.6112   63.7615   69.7399 F       1  UNL1       -0.1701
     32 C           2.8859   68.1563   67.8532 C.3     1  UNL1        0.3977
     33 F           3.7216   68.5568   66.8051 F       1  UNL1       -0.1701
     34 F           1.5761   68.0227   67.3802 F       1  UNL1       -0.1701
     35 F           2.9190   69.1175   68.8692 F       1  UNL1       -0.1701
@<TRIPOS>UNITY_ATOM_ATTR
19 1
charge 1
@<TRIPOS>BOND
     1    10    18   ar
     2    10    11   ar
     3    11    12   ar
     4    12    13   ar
     5    13    17   ar
     6    13    14   ar
     7    14    15   ar
     8    15    16   ar
     9    15     9    1
    10    16    17   ar
    11    17    18   ar
    12     9     8    1
    13     8     2    1
    14     2     7   ar
    15     2     3   ar
    16     3     4   ar
    17     4     5   ar
    18     5     6   ar
    19     5     1    1
    20     6     7   ar
    21     1    19    1
    22    19    22    1
    23    22    27    1
    24    22    23    1
    25    23    24    1
    26    24    25    1
    27    24    32    1
    28    25    26    1
    29    26    27    1
    30    26    28    1
    31    28    29    1
    32    28    30    1
    33    28    31    1
    34    32    33    1
    35    32    34    1
    36    32    35    1
    37    19    20    1
    38    19    21    1
#	Name:			ZINC27236997
#	Creating user name:	trannguyen
#	Creation time:		Thu Dec  1 16:45:04 2022


#	Modifying user name:	trannguyen
#	Modification time:	Thu Dec  1 16:45:04 2022

@<TRIPOS>MOLECULE
ZINC27236997
 35 38 0 0 0
SMALL
GASTEIGER

@<TRIPOS>ATOM
      1 C          -3.4899   59.9460   76.1022 C.3     1  UNL1        0.1679
      2 O          -2.9907   60.5512   77.2966 O.3     1  UNL1       -0.3748
      3 H          -2.1102   60.1961   77.4954 H       1  UNL1        0.2113
      4 C          -3.8430   54.2259   76.8434 C.3     1  UNL1        0.0310
      5 C          -3.7513   55.7176   76.6501 C.ar    1  UNL1       -0.0219
      6 C          -3.6163   56.5495   77.7459 C.ar    1  UNL1       -0.0045
      7 C          -3.5321   57.9179   77.5686 C.ar    1  UNL1       -0.0019
      8 C          -3.5818   58.4542   76.2956 C.ar    1  UNL1        0.0092
      9 C          -3.7215   57.6227   75.2002 C.ar    1  UNL1       -0.0019
     10 C          -3.8014   56.2540   75.3771 C.ar    1  UNL1       -0.0045
     11 C          -2.5565   60.2477   74.9583 C.ar    1  UNL1        0.0094
     12 C          -1.2134   59.9362   75.0629 C.ar    1  UNL1        0.0015
     13 C          -0.3566   60.2067   74.0134 C.ar    1  UNL1        0.0367
     14 C          -0.8429   60.8015   72.8583 C.ar    1  UNL1        0.1387
     15 C          -2.1898   61.1181   72.7579 C.ar    1  UNL1        0.0367
     16 C          -3.0435   60.8406   73.8080 C.ar    1  UNL1        0.0015
     17 O          -0.0011   61.0732   71.8265 O.3     1  UNL1       -0.4714
     18 C           0.9696   60.0762   71.5014 C.3     1  UNL1        0.2525
     19 C          -4.8787   60.5062   75.7887 C.3     1  UNL1        0.2521
     20 C          -5.4033   61.2773   77.0017 C.3     1  UNL1        0.1526
     21 N          -4.9691   62.6780   76.9165 N.4     1  UNL1        0.2787
     22 C          -5.3585   63.2778   75.6146 C.3     1  UNL1        0.1057
     23 C          -5.3160   64.8002   75.8987 C.3     1  UNL1        0.0670
     24 C          -5.8564   64.8973   77.3439 C.3     1  UNL1        0.0670
     25 C          -5.6288   63.5014   77.9530 C.3     1  UNL1        0.1057
     26 H          -3.9561   62.6711   77.0353 H       1  UNL1        0.2068
     27 O          -5.7693   59.4303   75.4867 O.3     1  UNL1       -0.4691
     28 C          -7.0997   59.6726   75.6264 C.ar    1  UNL1        0.1493
     29 C          -7.6908   60.7208   74.9369 C.ar    1  UNL1        0.0386
     30 C          -9.0438   60.9630   75.0767 C.ar    1  UNL1        0.0146
     31 C          -9.8079   60.1666   75.9115 C.ar    1  UNL1        0.0587
     32 C          -9.2199   59.1235   76.6046 C.ar    1  UNL1        0.0258
     33 C          -7.8672   58.8748   76.4637 C.ar    1  UNL1        0.0924
     34 CL         -7.1292   57.5664   77.3339 Cl      1  UNL1       -0.0791
     35 CL        -11.5065   60.4772   76.0897 Cl      1  UNL1       -0.0822
@<TRIPOS>UNITY_ATOM_ATTR
21 1
charge 1
@<TRIPOS>BOND
     1     4     5    1
     2     5    10   ar
     3     5     6   ar
     4     6     7   ar
     5     7     8   ar
     6     8     9   ar
     7     8     1    1
     8     9    10   ar
     9     1    11    1
    10     1    19    1
    11     1     2    1
    12    11    16   ar
    13    11    12   ar
    14    12    13   ar
    15    13    14   ar
    16    14    15   ar
    17    14    17    1
    18    15    16   ar
    19    17    18    1
    20    19    20    1
    21    19    27    1
    22    20    21    1
    23    21    25    1
    24    21    22    1
    25    22    23    1
    26    23    24    1
    27    24    25    1
    28    27    28    1
    29    28    33   ar
    30    28    29   ar
    31    29    30   ar
    32    30    31   ar
    33    31    32   ar
    34    31    35    1
    35    32    33   ar
    36    33    34    1
    37    21    26    1
    38     2     3    1
#	Name:			ZINC27843497
#	Creating user name:	trannguyen
#	Creation time:		Thu Dec  1 16:45:04 2022


#	Modifying user name:	trannguyen
#	Modification time:	Thu Dec  1 16:45:04 2022

@<TRIPOS>MOLECULE
ZINC27843497
 38 41 0 0 0
SMALL
GASTEIGER

@<TRIPOS>ATOM
      1 C          -0.4393   61.1819   72.0718 C.ar    1  UNL1        0.1973
      2 N          -0.8137   62.4387   72.0084 N.ar    1  UNL1       -0.1220
      3 N          -0.0005   63.1009   71.2656 N.ar    1  UNL1       -0.1308
      4 C           0.9301   62.3132   70.8056 C.ar    1  UNL1        0.1653
      5 N           0.6872   61.0610   71.3052 N.ar    1  UNL1       -0.2711
      6 C           1.4366   59.8977   71.0775 C.ar    1  UNL1        0.0670
      7 C           1.2134   58.7647   71.8480 C.ar    1  UNL1        0.0176
      8 C           1.9497   57.6189   71.6183 C.ar    1  UNL1        0.0015
      9 C           2.9156   57.6029   70.6290 C.ar    1  UNL1        0.0001
     10 C           3.1437   58.7315   69.8634 C.ar    1  UNL1        0.0015
     11 C           2.4069   59.8786   70.0850 C.ar    1  UNL1        0.0176
     12 C           2.0663   62.7078   69.8978 C.3     1  UNL1        0.1290
     13 C           1.7517   62.2685   68.4664 C.3     1  UNL1        0.0295
     14 N           2.2390   64.1621   69.9354 N.pl3   1  UNL1       -0.3284
     15 H           1.5845   64.7233   70.4108 H       1  UNL1        0.1471
     16 C           3.3320   64.7524   69.2970 C.ar    1  UNL1        0.0417
     17 C           4.6017   64.2075   69.4440 C.ar    1  UNL1        0.0140
     18 C           5.6806   64.7928   68.8113 C.ar    1  UNL1        0.0021
     19 C           5.4991   65.9208   68.0321 C.ar    1  UNL1        0.0112
     20 C           4.2352   66.4631   67.8786 C.ar    1  UNL1        0.0549
     21 C           3.1520   65.8848   68.5137 C.ar    1  UNL1        0.0018
     22 C           1.7766   66.4789   68.3510 C.3     1  UNL1        0.0332
     23 CL          4.0110   67.8749   66.8936 Cl      1  UNL1       -0.0825
     24 S          -1.2370   59.8948   72.9727 S.3     1  UNL1       -0.0655
     25 C          -0.9098   60.4464   74.6652 C.3     1  UNL1        0.1501
     26 N           0.5142   58.7422   75.7546 N.am    1  UNL1       -0.2808
     27 C           0.4311   59.9246   75.1133 C.2     1  UNL1        0.2376
     28 O           1.4358   60.5689   74.8966 O.2     1  UNL1       -0.2738
     29 H          -0.3063   58.2581   76.0028 H       1  UNL1        0.1550
     30 C           2.3226   58.4090   77.3293 C.ar    1  UNL1        0.1519
     31 C           3.5631   57.8723   77.6337 C.ar    1  UNL1        0.0382
     32 C           4.2477   57.1328   76.6875 C.ar    1  UNL1        0.0032
     33 C           3.6979   56.9262   75.4356 C.ar    1  UNL1        0.0015
     34 C           2.4589   57.4542   75.1256 C.ar    1  UNL1        0.0178
     35 C           1.7684   58.2018   76.0682 C.ar    1  UNL1        0.0848
     36 O           1.6477   59.1360   78.2593 O.3     1  UNL1       -0.4742
     37 C           1.7145   61.5516   78.2337 C.3     1  UNL1        0.0512
     38 C           2.3205   60.2702   78.8096 C.3     1  UNL1        0.2056
@<TRIPOS>BOND
     1    37    38    1
     2    38    36    1
     3    36    30    1
     4    30    35   ar
     5    30    31   ar
     6    31    32   ar
     7    32    33   ar
     8    33    34   ar
     9    34    35   ar
    10    35    26    1
    11    26    27   am
    12    27    28    2
    13    27    25    1
    14    25    24    1
    15    24     1    1
    16     1     5   ar
    17     1     2   ar
    18     2     3   ar
    19     3     4   ar
    20     4     5   ar
    21     4    12    1
    22     5     6    1
    23     6    11   ar
    24     6     7   ar
    25     7     8   ar
    26     8     9   ar
    27     9    10   ar
    28    10    11   ar
    29    12    13    1
    30    12    14    1
    31    14    16    1
    32    16    21   ar
    33    16    17   ar
    34    17    18   ar
    35    18    19   ar
    36    19    20   ar
    37    20    21   ar
    38    20    23    1
    39    21    22    1
    40    26    29    1
    41    14    15    1
#	Name:			ZINC28034188
#	Creating user name:	trannguyen
#	Creation time:		Thu Dec  1 16:45:04 2022


#	Modifying user name:	trannguyen
#	Modification time:	Thu Dec  1 16:45:04 2022

@<TRIPOS>MOLECULE
ZINC28034188
 27 30 0 0 0
SMALL
GASTEIGER

@<TRIPOS>ATOM
      1 N          -3.4629   60.0343   75.3948 N.ar    1  UNL1       -0.2572
      2 C          -2.7583   60.6745   74.4118 C.ar    1  UNL1        0.2261
      3 N          -3.2032   61.9042   74.3304 N.ar    1  UNL1       -0.1119
      4 N          -4.2218   62.0616   75.2790 N.ar    1  UNL1       -0.1205
      5 C          -4.3627   60.9248   75.9163 C.ar    1  UNL1        0.1984
      6 C          -2.7789   54.6392   77.0211 C.3     1  UNL1        0.0310
      7 C          -2.9605   56.0716   76.5894 C.ar    1  UNL1       -0.0218
      8 C          -2.3493   57.0888   77.2989 C.ar    1  UNL1       -0.0028
      9 C          -2.5136   58.4026   76.9053 C.ar    1  UNL1        0.0173
     10 C          -3.2938   58.7011   75.7966 C.ar    1  UNL1        0.0684
     11 C          -3.9108   57.6782   75.0897 C.ar    1  UNL1        0.0173
     12 C          -3.7386   56.3659   75.4850 C.ar    1  UNL1       -0.0028
     13 N          -1.7492   60.1182   73.6362 N.pl3   1  UNL1       -0.2780
     14 C          -1.4916   60.9417   72.4273 C.3     1  UNL1        0.0937
     15 C          -0.0674   60.5070   71.9990 C.3     1  UNL1        0.0233
     16 C           0.6546   60.3080   73.3515 C.3     1  UNL1        0.0233
     17 C          -0.4703   60.0802   74.3782 C.3     1  UNL1        0.0937
     18 S          -5.5126   60.5981   77.2107 S.3     1  UNL1       -0.0669
     19 C          -6.7735   59.5572   76.4253 C.3     1  UNL1        0.1355
     20 C          -7.1812   60.1684   75.1095 C.2     1  UNL1        0.1999
     21 O          -6.7988   59.6765   74.0672 O.2     1  UNL1       -0.2889
     22 C          -8.0085   61.3143   75.0887 C.ar    1  UNL1        0.0960
     23 C          -7.6175   62.6019   74.7639 C.ar    1  UNL1        0.0217
     24 C          -8.7496   63.4110   74.8751 C.ar    1  UNL1        0.0202
     25 C          -9.7865   62.6264   75.2612 C.ar    1  UNL1        0.0760
     26 N          -9.3536   61.3555   75.3890 N.ar    1  UNL1       -0.3218
     27 C         -10.1751   60.2096   75.7869 C.3     1  UNL1        0.1306
@<TRIPOS>BOND
     1     6     7    1
     2     7    12   ar
     3     7     8   ar
     4     8     9   ar
     5     9    10   ar
     6    10    11   ar
     7    10     1    1
     8    11    12   ar
     9     1     5   ar
    10     1     2   ar
    11     2     3   ar
    12     2    13    1
    13     3     4   ar
    14     4     5   ar
    15     5    18    1
    16    18    19    1
    17    19    20    1
    18    20    21    2
    19    20    22    1
    20    22    26   ar
    21    22    23   ar
    22    23    24   ar
    23    24    25   ar
    24    25    26   ar
    25    26    27    1
    26    13    17    1
    27    13    14    1
    28    14    15    1
    29    15    16    1
    30    16    17    1
#	Name:			ZINC28035471
#	Creating user name:	trannguyen
#	Creation time:		Thu Dec  1 16:45:04 2022


#	Modifying user name:	trannguyen
#	Modification time:	Thu Dec  1 16:45:04 2022

@<TRIPOS>MOLECULE
ZINC28035471
 29 32 0 0 0
SMALL
GASTEIGER

@<TRIPOS>ATOM
      1 C          -1.4781   60.0006   74.0665 C.2     1  UNL1        0.2493
      2 O          -0.6554   59.3087   74.6378 O.2     1  UNL1       -0.2699
      3 N          -2.7937   59.7911   74.2714 N.am    1  UNL1       -0.2702
      4 C          -3.2087   58.6501   75.1108 C.3     1  UNL1        0.1001
      5 C          -4.3601   59.0392   76.0533 C.3     1  UNL1        0.0824
      6 C          -4.1221   60.4299   76.5990 C.3     1  UNL1        0.1075
      7 N          -4.7882   61.4032   75.7349 N.4     1  UNL1        0.2810
      8 C          -4.0459   61.8679   74.6241 C.3     1  UNL1        0.1276
      9 C          -3.7490   60.6938   73.6605 C.3     1  UNL1        0.1547
     10 H          -5.5529   60.8748   75.3147 H       1  UNL1        0.2071
     11 C          -0.0096   60.8138   72.3540 C.2     1  UNL1        0.0078
     12 C          -1.0524   61.0271   73.1854 C.2     1  UNL1        0.0580
     13 N           1.6962   63.2950   70.3334 N.ar    1  UNL1       -0.2281
     14 C           1.7314   62.3099   71.2510 C.ar    1  UNL1        0.1019
     15 C           0.4316   61.8773   71.4410 C.ar    1  UNL1        0.0402
     16 C          -0.3927   62.6469   70.5866 C.ar    1  UNL1        0.1220
     17 N           0.3673   63.4874   69.9400 N.ar    1  UNL1       -0.1635
     18 C           4.9901   65.4145   68.9082 C.ar    1  UNL1        0.0001
     19 C           3.7301   65.9823   68.8585 C.ar    1  UNL1        0.0015
     20 C           2.6368   65.2824   69.3300 C.ar    1  UNL1        0.0191
     21 C           2.8035   64.0074   69.8539 C.ar    1  UNL1        0.0828
     22 C           4.0706   63.4420   69.9068 C.ar    1  UNL1        0.0191
     23 C           5.1594   64.1448   69.4293 C.ar    1  UNL1        0.0015
     24 C          -5.3208   62.5255   76.5189 C.3     1  UNL1        0.1394
     25 C          -6.2903   63.3123   75.6751 C.ar    1  UNL1        0.0621
     26 C          -6.2362   64.6144   75.3025 C.ar    1  UNL1        0.0084
     27 C          -7.2478   65.1283   74.5132 C.ar    1  UNL1        0.0074
     28 C          -8.2696   64.3179   74.1439 C.ar    1  UNL1        0.0353
     29 S          -7.8124   62.7732   74.9134 S.2     1  UNL1       -0.0850
@<TRIPOS>UNITY_ATOM_ATTR
7 1
charge 1
@<TRIPOS>BOND
     1    18    23   ar
     2    18    19   ar
     3    19    20   ar
     4    20    21   ar
     5    21    22   ar
     6    21    13    1
     7    22    23   ar
     8    13    17   ar
     9    13    14   ar
    10    14    15   ar
    11    15    16   ar
    12    15    11    1
    13    16    17   ar
    14    11    12    2
    15    12     1    1
    16     1     2    2
    17     1     3   am
    18     3     9    1
    19     3     4    1
    20     4     5    1
    21     5     6    1
    22     6     7    1
    23     7     8    1
    24     7    24    1
    25     8     9    1
    26    24    25    1
    27    25    29   ar
    28    25    26   ar
    29    26    27   ar
    30    27    28   ar
    31    28    29   ar
    32     7    10    1
#	Name:			ZINC28042114
#	Creating user name:	trannguyen
#	Creation time:		Thu Dec  1 16:45:04 2022


#	Modifying user name:	trannguyen
#	Modification time:	Thu Dec  1 16:45:04 2022

@<TRIPOS>MOLECULE
ZINC28042114
 28 30 0 0 0
SMALL
GASTEIGER

@<TRIPOS>ATOM
      1 C          -2.0333   59.4938   75.6837 C.2     1  UNL1        0.2469
      2 O          -1.8623   60.0140   76.7695 O.2     1  UNL1       -0.2701
      3 N          -2.5528   58.2525   75.6055 N.am    1  UNL1       -0.2987
      4 H          -2.6913   57.8314   74.7265 H       1  UNL1        0.1500
      5 C          -2.9112   57.5302   76.8285 C.3     1  UNL1        0.0958
      6 C          -2.1416   56.2216   76.8619 C.3     1  UNL1        0.0361
      7 C          -2.4701   55.4792   78.1657 C.3     1  UNL1        0.0643
      8 S          -4.1719   54.8602   78.0140 S.3     1  UNL1       -0.1116
      9 C          -5.0518   56.2456   77.3643 C.ar    1  UNL1        0.0502
     10 C          -4.4009   57.3568   76.8633 C.ar    1  UNL1        0.0034
     11 C          -5.1621   58.4058   76.3515 C.ar    1  UNL1       -0.0021
     12 C          -6.5387   58.3506   76.3498 C.ar    1  UNL1        0.0021
     13 C          -7.1887   57.2419   76.8614 C.ar    1  UNL1        0.0301
     14 C          -6.4475   56.1929   77.3656 C.ar    1  UNL1        0.1455
     15 F          -7.0768   55.1066   77.8648 F       1  UNL1       -0.2037
     16 C          -0.4966   61.1114   72.7776 C.ar    1  UNL1        0.1292
     17 C          -0.3750   60.3671   73.9146 C.ar    1  UNL1        0.0056
     18 C          -1.6726   60.2206   74.4531 C.ar    1  UNL1        0.0624
     19 C          -2.5413   60.8825   73.6056 C.ar    1  UNL1        0.0382
     20 N          -1.8291   61.4159   72.6004 N.ar    1  UNL1       -0.3515
     21 C          -4.0344   60.9875   73.7803 C.3     1  UNL1        0.0499
     22 C           0.9020   59.8099   74.4890 C.3     1  UNL1        0.0329
     23 H          -2.1998   61.9412   71.8549 H       1  UNL1        0.1658
     24 C           0.6013   61.5132   71.8924 C.2     1  UNL1        0.3567
     25 O           1.1447   62.5899   72.0479 O.2     1  UNL1       -0.2433
     26 O           1.0085   60.6885   70.9061 O.3     1  UNL1       -0.4444
     27 C           1.9331   61.5696   68.8325 C.3     1  UNL1        0.0513
     28 C           2.2470   61.0309   70.2298 C.3     1  UNL1        0.2089
@<TRIPOS>BOND
     1    27    28    1
     2    28    26    1
     3    26    24    1
     4    24    25    2
     5    24    16    1
     6    16    20   ar
     7    16    17   ar
     8    17    18   ar
     9    17    22    1
    10    18    19   ar
    11    18     1    1
    12    19    20   ar
    13    19    21    1
    14     1     2    2
    15     1     3   am
    16     3     5    1
    17     5    10    1
    18     5     6    1
    19     6     7    1
    20     7     8    1
    21     8     9    1
    22     9    14   ar
    23     9    10   ar
    24    10    11   ar
    25    11    12   ar
    26    12    13   ar
    27    13    14   ar
    28    14    15    1
    29    20    23    1
    30     3     4    1
#	Name:			ZINC28205352
#	Creating user name:	trannguyen
#	Creation time:		Thu Dec  1 16:45:04 2022


#	Modifying user name:	trannguyen
#	Modification time:	Thu Dec  1 16:45:04 2022

@<TRIPOS>MOLECULE
ZINC28205352
 12 13 0 0 0
SMALL
GASTEIGER

@<TRIPOS>ATOM
      1 C          -5.4576   63.8497   75.4505 C.3     1  UNL1        0.0728
      2 C          -5.6656   62.5761   75.1753 C.2     1  UNL1        0.1028
      3 C          -4.5912   61.5429   74.9424 C.3     1  UNL1        0.0773
      4 C          -5.3650   60.2447   74.6655 C.3     1  UNL1        0.1232
      5 C          -6.8324   60.6373   74.7635 C.2     1  UNL1        0.2646
      6 N          -7.9843   60.0569   74.6446 N.2     1  UNL1       -0.2575
      7 C          -9.0711   61.0155   74.8618 C.3     1  UNL1        0.2744
      8 C          -8.3432   62.3418   75.1448 C.3     1  UNL1        0.3107
      9 N          -6.9131   61.9680   75.0523 N.2     1  UNL1       -0.2085
     10 H          -8.1120   59.1032   74.4369 H       1  UNL1        0.3047
     11 C          -8.6841   63.3492   74.1272 C.1     1  UNL1        0.1270
     12 N          -8.9471   64.1267   73.3419 N.1     1  UNL1       -0.1914
@<TRIPOS>UNITY_ATOM_ATTR
6 1
charge 1
9 1
charge 1
@<TRIPOS>BOND
     1     1     2    1
     2     2     9    2
     3     2     3    1
     4     3     4    1
     5     4     5    1
     6     5     9    1
     7     5     6    2
     8     6     7    1
     9     7     8    1
    10     8     9    1
    11     8    11    1
    12    11    12    3
    13     6    10    1
#	Name:			ZINC28207551
#	Creating user name:	trannguyen
#	Creation time:		Thu Dec  1 16:45:04 2022


#	Modifying user name:	trannguyen
#	Modification time:	Thu Dec  1 16:45:04 2022

@<TRIPOS>MOLECULE
ZINC28207551
 13 14 0 0 0
SMALL
GASTEIGER

@<TRIPOS>ATOM
      1 C           2.4526   59.8742   69.6408 C.3     1  UNL1        0.1785
      2 C           2.5816   61.3403   69.1542 C.3     1  UNL1        0.2050
      3 C           2.0789   62.1296   70.3772 C.3     1  UNL1        0.1811
      4 C           1.1726   61.0836   71.0453 C.3     1  UNL1        0.1985
      5 C           0.0857   61.7271   71.3820 C.2     1  UNL1        0.2387
      6 N          -0.0257   62.9557   70.7336 N.2     1  UNL1       -0.0377
      7 C           1.1236   63.2327   70.0173 C.2     1  UNL1        0.3462
      8 N           1.3314   64.2235   69.2136 N.4     1  UNL1       -0.0929
      9 O           2.5797   64.3533   68.5577 O.2     1  UNL1       -0.3548
     10 O           1.9260   59.9493   70.9853 O.3     1  UNL1       -0.3442
     11 F           1.7663   61.5709   68.0410 F       1  UNL1       -0.2338
     12 H           0.6219   64.8878   69.0575 H       1  UNL1        0.3602
     13 H           3.2550   63.7209   68.7063 H       1  UNL1        0.3552
@<TRIPOS>UNITY_ATOM_ATTR
8 1
charge 1
@<TRIPOS>BOND
     1     1    10    1
     2     1     2    1
     3     2     3    1
     4     2    11    1
     5     3     7    1
     6     3     4    1
     7     4     5    1
     8     4    10    1
     9     5     6    2
    10     6     7    1
    11     7     8    2
    12     8     9    1
    13     8    12    1
    14     9    13    1
#	Name:			ZINC28296690
#	Creating user name:	trannguyen
#	Creation time:		Thu Dec  1 16:45:04 2022


#	Modifying user name:	trannguyen
#	Modification time:	Thu Dec  1 16:45:04 2022

@<TRIPOS>MOLECULE
ZINC28296690
 43 47 0 0 0
SMALL
GASTEIGER

@<TRIPOS>ATOM
      1 C           4.7589   57.2108   75.4893 C.3     1  UNL1        0.0310
      2 C           3.3233   57.3524   75.9252 C.ar    1  UNL1       -0.0221
      3 C           2.7650   58.6161   76.0583 C.ar    1  UNL1       -0.0071
      4 C           1.4544   58.7670   76.4555 C.ar    1  UNL1       -0.0064
      5 C           0.6809   57.6431   76.7319 C.ar    1  UNL1        0.0559
      6 C           1.2508   56.3657   76.5905 C.ar    1  UNL1        0.0166
      7 C           2.5805   56.2355   76.1869 C.ar    1  UNL1       -0.0028
      8 C           0.1977   55.4023   76.9422 C.ar    1  UNL1        0.0172
      9 C          -0.9201   56.1437   77.2620 C.ar    1  UNL1        0.0599
     10 N          -0.6281   57.4798   77.1321 N.ar    1  UNL1       -0.3247
     11 C           0.8615   60.1453   76.5964 C.3     1  UNL1        0.0325
     12 C          -2.2240   55.5895   77.6776 C.ar    1  UNL1        0.0158
     13 C          -2.5250   55.4457   79.0339 C.ar    1  UNL1        0.0014
     14 C          -3.7474   54.9327   79.4150 C.ar    1  UNL1        0.0000
     15 C          -4.6699   54.5502   78.4572 C.ar    1  UNL1        0.0000
     16 C          -4.3760   54.6845   77.1118 C.ar    1  UNL1        0.0000
     17 C          -3.1598   55.2013   76.7162 C.ar    1  UNL1        0.0014
     18 C           0.3142   53.9271   76.9508 C.ar    1  UNL1        0.0014
     19 C           1.1303   53.2941   77.8892 C.ar    1  UNL1        0.0000
     20 C           1.2302   51.9181   77.8956 C.ar    1  UNL1        0.0000
     21 C           0.5326   51.1666   76.9667 C.ar    1  UNL1        0.0000
     22 C          -0.2742   51.7883   76.0302 C.ar    1  UNL1        0.0000
     23 C          -0.3871   53.1633   76.0169 C.ar    1  UNL1        0.0000
     24 C          -1.5697   58.5727   77.3874 C.3     1  UNL1        0.1413
     25 C          -2.5964   58.6362   76.2549 C.3     1  UNL1        0.1883
     26 O          -3.9138   58.6677   76.8075 O.3     1  UNL1       -0.3773
     27 H          -4.0083   59.4496   77.3738 H       1  UNL1        0.2107
     28 C          -2.3616   59.8992   75.4238 C.3     1  UNL1        0.1339
     29 N          -2.1343   59.5271   74.0210 N.4     1  UNL1        0.2564
     30 H          -2.9312   59.8314   73.4618 H       1  UNL1        0.2036
     31 H          -2.0257   58.5144   73.9669 H       1  UNL1        0.2036
     32 C          -0.9137   60.1573   73.5005 C.3     1  UNL1        0.1071
     33 C          -1.2914   61.2500   72.4983 C.3     1  UNL1        0.0872
     34 C          -0.1620   61.4467   71.5202 C.ar    1  UNL1       -0.0131
     35 C          -0.1372   62.5679   70.7116 C.ar    1  UNL1       -0.0007
     36 C           0.8997   62.7557   69.8168 C.ar    1  UNL1        0.0397
     37 C           1.9112   61.8136   69.7208 C.ar    1  UNL1        0.1724
     38 C           1.8833   60.6823   70.5307 C.ar    1  UNL1        0.1721
     39 C           0.8441   60.5030   71.4295 C.ar    1  UNL1        0.0360
     40 O           2.8740   59.7550   70.4405 O.3     1  UNL1       -0.4684
     41 C           2.5173   58.3968   70.7053 C.3     1  UNL1        0.2526
     42 O           2.9293   61.9943   68.8375 O.3     1  UNL1       -0.4684
     43 C           3.7666   63.1351   69.0372 C.3     1  UNL1        0.2526
@<TRIPOS>UNITY_ATOM_ATTR
29 1
charge 1
@<TRIPOS>BOND
     1     1     2    1
     2     2     7   ar
     3     2     3   ar
     4     3     4   ar
     5     4     5   ar
     6     4    11    1
     7     5    10   ar
     8     5     6   ar
     9     6     7   ar
    10     6     8   ar
    11     8     9   ar
    12     8    18    1
    13     9    10   ar
    14     9    12    1
    15    10    24    1
    16    24    25    1
    17    25    28    1
    18    25    26    1
    19    28    29    1
    20    29    32    1
    21    32    33    1
    22    33    34    1
    23    34    39   ar
    24    34    35   ar
    25    35    36   ar
    26    36    37   ar
    27    37    38   ar
    28    37    42    1
    29    38    39   ar
    30    38    40    1
    31    40    41    1
    32    42    43    1
    33    12    17   ar
    34    12    13   ar
    35    13    14   ar
    36    14    15   ar
    37    15    16   ar
    38    16    17   ar
    39    18    23   ar
    40    18    19   ar
    41    19    20   ar
    42    20    21   ar
    43    21    22   ar
    44    22    23   ar
    45    29    30    1
    46    29    31    1
    47    26    27    1
#	Name:			ZINC28535559
#	Creating user name:	trannguyen
#	Creation time:		Thu Dec  1 16:45:04 2022


#	Modifying user name:	trannguyen
#	Modification time:	Thu Dec  1 16:45:04 2022

@<TRIPOS>MOLECULE
ZINC28535559
 13 14 0 0 0
SMALL
GASTEIGER

@<TRIPOS>ATOM
      1 C           2.3436   64.0093   69.4113 C.2     1  UNL1        0.4087
      2 O           1.1470   64.1815   69.2889 O.2     1  UNL1       -0.2258
      3 N           3.1963   65.0323   69.2047 N.am    1  UNL1       -0.2252
      4 C           4.5429   64.8156   69.3540 C.2     1  UNL1        0.0706
      5 C           5.5470   65.2254   68.6449 C.2     1  UNL1        0.0159
      6 C           5.4772   65.9538   67.3952 C.2     1  UNL1       -0.0032
      7 C           4.4986   66.6507   66.9122 C.2     1  UNL1       -0.0247
      8 C           3.1501   66.8994   67.5012 C.3     1  UNL1        0.0424
      9 C           2.6614   66.3296   68.8374 C.3     1  UNL1        0.0874
     10 C           3.2930   67.6738   68.8490 C.3     1  UNL1        0.0266
     11 O           2.8177   62.7962   69.7530 O.3     1  UNL1       -0.4343
     12 C           2.2845   60.4202   69.7788 C.3     1  UNL1        0.0513
     13 C           2.4266   61.6759   68.9162 C.3     1  UNL1        0.2103
@<TRIPOS>BOND
     1    12    13    1
     2    13    11    1
     3    11     1    1
     4     1     2    2
     5     1     3   am
     6     3     9    1
     7     3     4    1
     8     4     5    2
     9     5     6    1
    10     6     7    2
    11     7     8    1
    12     8    10    1
    13     8     9    1
    14     9    10    1
#	Name:			ZINC28540022
#	Creating user name:	trannguyen
#	Creation time:		Thu Dec  1 16:45:04 2022


#	Modifying user name:	trannguyen
#	Modification time:	Thu Dec  1 16:45:04 2022

@<TRIPOS>MOLECULE
ZINC28540022
 36 39 0 0 0
SMALL
GASTEIGER

@<TRIPOS>ATOM
      1 C          -1.2501   59.4329   75.8392 C.ar    1  UNL1        0.0686
      2 C          -2.0562   59.8025   74.7649 C.ar    1  UNL1        0.0832
      3 S          -3.2570   58.4770   74.7841 S.2     1  UNL1       -0.0636
      4 C          -2.5877   57.5940   76.1872 C.ar    1  UNL1        0.1116
      5 N          -1.5404   58.3547   76.5086 N.ar    1  UNL1       -0.2425
      6 C          -3.0656   56.3574   76.8197 C.2     1  UNL1        0.0383
      7 C          -4.0075   56.4145   77.7964 C.2     1  UNL1        0.0633
      8 C          -2.5199   55.0476   76.3921 C.ar    1  UNL1        0.0032
      9 C          -1.4070   54.5090   77.0369 C.ar    1  UNL1        0.0010
     10 C          -0.9068   53.2862   76.6388 C.ar    1  UNL1        0.0114
     11 C          -1.5006   52.5997   75.5933 C.ar    1  UNL1        0.0577
     12 C          -2.6020   53.1328   74.9455 C.ar    1  UNL1        0.0114
     13 C          -3.1140   54.3520   75.3396 C.ar    1  UNL1        0.0010
     14 CL         -0.8621   51.0648   75.0932 Cl      1  UNL1       -0.0822
     15 N          -4.5760   55.2603   78.2684 N.pl3   1  UNL1       -0.3065
     16 C          -4.0708   54.4519   79.3876 C.3     1  UNL1        0.0909
     17 C          -5.0146   53.2406   79.5407 C.3     1  UNL1        0.0232
     18 C          -5.6649   53.1298   78.1364 C.3     1  UNL1        0.0232
     19 C          -5.7917   54.6203   77.7338 C.3     1  UNL1        0.0909
     20 C          -1.9525   60.9181   73.8966 C.2     1  UNL1        0.2027
     21 O          -2.7096   61.8634   74.0264 O.2     1  UNL1       -0.2860
     22 C          -0.9250   60.9342   72.8332 C.ar    1  UNL1        0.0395
     23 C          -0.0607   59.8489   72.6771 C.ar    1  UNL1        0.0037
     24 C           0.8917   59.8675   71.6799 C.ar    1  UNL1        0.0068
     25 C           0.9996   60.9648   70.8419 C.ar    1  UNL1        0.0346
     26 C           0.1489   62.0467   70.9955 C.ar    1  UNL1        0.0068
     27 C          -0.8116   62.0374   71.9849 C.ar    1  UNL1        0.0037
     28 BR          2.3134   60.9855   69.4821 Br      1  UNL1       -0.0490
     29 C          -0.0606   60.2737   76.2254 C.3     1  UNL1        0.0467
     30 C           1.0615   59.3667   76.7343 C.3     1  UNL1        0.0124
     31 C           1.9312   58.9217   75.5569 C.3     1  UNL1        0.0612
     32 C           2.8966   57.8288   76.0203 C.3     1  UNL1        0.1025
     33 C           5.0954   56.9434   75.5264 C.3     1  UNL1        0.1640
     34 N           3.8930   57.5783   74.9704 N.4     1  UNL1        0.2588
     35 H           3.4870   56.9633   74.2651 H       1  UNL1        0.2037
     36 H           4.1594   58.4711   74.5555 H       1  UNL1        0.2037
@<TRIPOS>UNITY_ATOM_ATTR
34 1
charge 1
@<TRIPOS>BOND
     1    33    34    1
     2    34    32    1
     3    32    31    1
     4    31    30    1
     5    30    29    1
     6    29     1    1
     7     1     5   ar
     8     1     2   ar
     9     2     3   ar
    10     2    20    1
    11     3     4   ar
    12     4     5   ar
    13     4     6    1
    14     6     7    2
    15     6     8    1
    16     7    15    1
    17    15    19    1
    18    15    16    1
    19    16    17    1
    20    17    18    1
    21    18    19    1
    22     8    13   ar
    23     8     9   ar
    24     9    10   ar
    25    10    11   ar
    26    11    12   ar
    27    11    14    1
    28    12    13   ar
    29    20    21    2
    30    20    22    1
    31    22    27   ar
    32    22    23   ar
    33    23    24   ar
    34    24    25   ar
    35    25    26   ar
    36    25    28    1
    37    26    27   ar
    38    34    35    1
    39    34    36    1
#	Name:			ZINC28603956
#	Creating user name:	trannguyen
#	Creation time:		Thu Dec  1 16:45:04 2022


#	Modifying user name:	trannguyen
#	Modification time:	Thu Dec  1 16:45:04 2022

@<TRIPOS>MOLECULE
ZINC28603956
 39 42 0 0 0
SMALL
GASTEIGER

@<TRIPOS>ATOM
      1 C          -2.0638   60.1322   74.5111 C.ar    1  UNL1        0.0795
      2 C          -0.7351   59.7434   74.6263 C.ar    1  UNL1        0.0527
      3 C           0.1779   60.0911   73.6412 C.ar    1  UNL1        0.0147
      4 C          -0.2374   60.8391   72.5424 C.ar    1  UNL1        0.0042
      5 C          -1.5693   61.2314   72.4333 C.ar    1  UNL1        0.0366
      6 C          -2.4785   60.8769   73.4177 C.ar    1  UNL1        0.1363
      7 O          -3.7779   61.2602   73.3110 O.3     1  UNL1       -0.5056
      8 H          -4.3930   61.0210   73.9761 H       1  UNL1        0.2922
      9 C           0.7377   61.2180   71.4898 C.ar    1  UNL1        0.0001
     10 C           1.5191   60.2411   70.8762 C.ar    1  UNL1       -0.0001
     11 C           2.4213   60.5987   69.8948 C.ar    1  UNL1        0.0039
     12 C           2.5574   61.9251   69.5268 C.ar    1  UNL1        0.0714
     13 C           1.7881   62.8996   70.1365 C.ar    1  UNL1        0.0039
     14 C           0.8793   62.5528   71.1157 C.ar    1  UNL1       -0.0001
     15 C           3.5480   62.3100   68.4583 C.3     1  UNL1        0.4186
     16 F           4.3038   61.1893   68.0976 F       1  UNL1       -0.1659
     17 F           2.8620   62.7902   67.3376 F       1  UNL1       -0.1659
     18 F           4.3977   63.3077   68.9479 F       1  UNL1       -0.1659
     19 N          -0.3191   58.9974   75.7322 N.pl3   1  UNL1       -0.3125
     20 H          -0.7005   58.1046   75.8955 H       1  UNL1        0.1522
     21 C           0.6313   59.5149   76.6001 C.ar    1  UNL1        0.0513
     22 C           0.5177   60.8035   77.0993 C.ar    1  UNL1        0.0353
     23 C           1.4825   61.2909   77.9696 C.ar    1  UNL1        0.1001
     24 N           2.5167   60.5684   78.3330 N.ar    1  UNL1       -0.2437
     25 C           2.6931   59.3195   77.8865 C.ar    1  UNL1        0.0833
     26 C           1.7505   58.7465   76.9994 C.ar    1  UNL1        0.0312
     27 C           1.9401   57.4378   76.5340 C.ar    1  UNL1        0.0036
     28 C           3.0304   56.7294   76.9406 C.ar    1  UNL1        0.0115
     29 C           3.9605   57.2898   77.8145 C.ar    1  UNL1        0.0592
     30 C           3.8056   58.5591   78.2850 C.ar    1  UNL1        0.0305
     31 CL          5.3371   56.3562   78.3116 Cl      1  UNL1       -0.0822
     32 C          -3.0550   59.7490   75.5797 C.3     1  UNL1        0.1336
     33 N          -3.9560   58.7108   75.0621 N.4     1  UNL1        0.2499
     34 H          -4.8546   59.1341   74.8305 H       1  UNL1        0.2034
     35 H          -3.5318   58.2966   74.2321 H       1  UNL1        0.2034
     36 C          -3.3581   57.9688   77.3180 C.3     1  UNL1        0.0552
     37 C          -4.1665   57.6518   76.0583 C.3     1  UNL1        0.0136
     38 C          -5.6528   57.5727   76.4125 C.3     1  UNL1        0.0552
     39 C          -3.7075   56.3109   75.4818 C.3     1  UNL1        0.0552
@<TRIPOS>UNITY_ATOM_ATTR
33 1
charge 1
@<TRIPOS>BOND
     1    36    37    1
     2    37    38    1
     3    37    39    1
     4    37    33    1
     5    33    32    1
     6    32     1    1
     7     1     6   ar
     8     1     2   ar
     9     2     3   ar
    10     2    19    1
    11     3     4   ar
    12     4     5   ar
    13     4     9    1
    14     5     6   ar
    15     6     7    1
    16     9    14   ar
    17     9    10   ar
    18    10    11   ar
    19    11    12   ar
    20    12    13   ar
    21    12    15    1
    22    13    14   ar
    23    15    16    1
    24    15    17    1
    25    15    18    1
    26    19    21    1
    27    21    26   ar
    28    21    22   ar
    29    22    23   ar
    30    23    24   ar
    31    24    25   ar
    32    25    30   ar
    33    25    26   ar
    34    26    27   ar
    35    27    28   ar
    36    28    29   ar
    37    29    30   ar
    38    29    31    1
    39    33    34    1
    40    33    35    1
    41     7     8    1
    42    19    20    1
#	Name:			ZINC28754722
#	Creating user name:	trannguyen
#	Creation time:		Thu Dec  1 16:45:04 2022


#	Modifying user name:	trannguyen
#	Modification time:	Thu Dec  1 16:45:04 2022

@<TRIPOS>MOLECULE
ZINC28754722
 43 47 0 0 0
SMALL
GASTEIGER

@<TRIPOS>ATOM
      1 C          -1.9157   60.7039   73.3271 C.ar    1  UNL1        0.1453
      2 C          -1.8151   59.9690   74.4716 C.ar    1  UNL1        0.0406
      3 C          -3.0668   60.0191   75.1011 C.ar    1  UNL1        0.0406
      4 C          -3.8779   60.7823   74.3137 C.ar    1  UNL1        0.1453
      5 O          -3.1673   61.1953   73.2465 O.2     1  UNL1       -0.4535
      6 C          -0.8118   62.1023   71.5891 C.ar    1  UNL1        0.0033
      7 C           0.1959   62.3125   70.6836 C.ar    1  UNL1        0.0073
      8 C           1.1911   61.3480   70.5092 C.ar    1  UNL1        0.0776
      9 C           1.1642   60.1716   71.2618 C.ar    1  UNL1        0.0073
     10 C           0.1609   59.9628   72.1726 C.ar    1  UNL1        0.0033
     11 C          -0.8360   60.9277   72.3475 C.ar    1  UNL1        0.0346
     12 C           2.2741   61.5725   69.5273 C.2     1  UNL1        0.2702
     13 N           2.3935   62.7312   68.9426 N.2     1  UNL1       -0.2604
     14 N           3.1571   60.5564   69.2308 N.pl3   1  UNL1       -0.2496
     15 H           1.7150   63.4291   69.0899 H       1  UNL1        0.3047
     16 H           3.0668   59.6813   69.6725 H       1  UNL1        0.2883
     17 H           3.8780   60.7059   68.5772 H       1  UNL1        0.2883
     18 C           3.5375   62.9948   68.0661 C.3     1  UNL1        0.2083
     19 C           3.9948   64.4437   68.2465 C.3     1  UNL1        0.0487
     20 C           2.8469   65.2724   68.8266 C.3     1  UNL1        0.0043
     21 C           3.3043   66.7212   69.0069 C.3     1  UNL1        0.0001
     22 C           3.7156   67.2987   67.6511 C.3     1  UNL1        0.0000
     23 C           4.8635   66.4700   67.0710 C.3     1  UNL1        0.0001
     24 C           4.4063   65.0212   66.8907 C.3     1  UNL1        0.0043
     25 C          -5.2905   61.1057   74.5875 C.ar    1  UNL1        0.0346
     26 C          -6.2283   60.0784   74.7314 C.ar    1  UNL1        0.0033
     27 C          -7.5400   60.3798   74.9925 C.ar    1  UNL1        0.0073
     28 C          -7.9423   61.7129   75.1021 C.ar    1  UNL1        0.0776
     29 C          -7.0074   62.7399   74.9524 C.ar    1  UNL1        0.0073
     30 C          -5.6940   62.4401   74.6978 C.ar    1  UNL1        0.0033
     31 C          -9.3588   62.0372   75.3771 C.2     1  UNL1        0.2702
     32 N          -9.7184   63.2750   75.5701 N.2     1  UNL1       -0.2604
     33 N         -10.2988   61.0302   75.4292 N.pl3   1  UNL1       -0.2496
     34 H          -9.0369   63.9841   75.6166 H       1  UNL1        0.3047
     35 H         -10.0272   60.0953   75.2835 H       1  UNL1        0.2883
     36 H         -11.2417   61.2460   75.6122 H       1  UNL1        0.2883
     37 C         -11.1366   63.6113   75.7178 C.3     1  UNL1        0.2083
     38 C         -11.4460   64.8789   74.9189 C.3     1  UNL1        0.0487
     39 C         -12.6258   64.6155   73.9811 C.3     1  UNL1        0.0043
     40 C         -12.9351   65.8831   73.1821 C.3     1  UNL1        0.0001
     41 C         -11.7078   66.2793   72.3589 C.3     1  UNL1        0.0000
     42 C         -10.5280   66.5427   73.2966 C.3     1  UNL1        0.0001
     43 C         -10.2187   65.2751   74.0956 C.3     1  UNL1        0.0043
@<TRIPOS>UNITY_ATOM_ATTR
13 1
charge 1
32 1
charge 1
@<TRIPOS>BOND
     1     6    11   ar
     2     6     7   ar
     3     7     8   ar
     4     8     9   ar
     5     8    12    1
     6     9    10   ar
     7    10    11   ar
     8    11     1    1
     9     1     5   ar
    10     1     2   ar
    11     2     3   ar
    12     3     4   ar
    13     4     5   ar
    14     4    25    1
    15    25    30   ar
    16    25    26   ar
    17    26    27   ar
    18    27    28   ar
    19    28    29   ar
    20    28    31    1
    21    29    30   ar
    22    31    32    2
    23    31    33    1
    24    32    37    1
    25    37    38    1
    26    38    43    1
    27    38    39    1
    28    39    40    1
    29    40    41    1
    30    41    42    1
    31    42    43    1
    32    12    13    2
    33    12    14    1
    34    13    18    1
    35    18    19    1
    36    19    24    1
    37    19    20    1
    38    20    21    1
    39    21    22    1
    40    22    23    1
    41    23    24    1
    42    32    34    1
    43    33    35    1
    44    33    36    1
    45    13    15    1
    46    14    16    1
    47    14    17    1
#	Name:			ZINC28961274
#	Creating user name:	trannguyen
#	Creation time:		Thu Dec  1 16:45:04 2022


#	Modifying user name:	trannguyen
#	Modification time:	Thu Dec  1 16:45:04 2022

@<TRIPOS>MOLECULE
ZINC28961274
 38 41 0 0 0
SMALL
GASTEIGER

@<TRIPOS>ATOM
      1 C          -0.5944   59.9752   75.3484 C.ar    1  UNL1        0.1043
      2 C          -0.6589   60.1685   73.9543 C.ar    1  UNL1        0.0710
      3 C          -1.9466   60.4146   73.6285 C.ar    1  UNL1        0.1033
      4 N          -2.6780   60.3896   74.7732 N.ar    1  UNL1       -0.2286
      5 N          -1.8093   60.1126   75.8365 N.ar    1  UNL1       -0.1652
      6 C          -4.0591   60.6035   74.8725 C.ar    1  UNL1        0.0788
      7 C          -4.5713   61.8920   74.7926 C.ar    1  UNL1        0.0188
      8 C          -5.9330   62.0994   74.8903 C.ar    1  UNL1        0.0015
      9 C          -6.7866   61.0257   75.0677 C.ar    1  UNL1       -0.0002
     10 C          -6.2797   59.7419   75.1481 C.ar    1  UNL1       -0.0028
     11 C          -4.9191   59.5272   75.0452 C.ar    1  UNL1       -0.0042
     12 C          -4.3680   58.1270   75.1268 C.3     1  UNL1        0.0326
     13 C           2.9150   59.1160   77.5908 C.ar    1  UNL1       -0.0222
     14 C           2.2690   58.1021   76.9067 C.ar    1  UNL1       -0.0042
     15 C           1.1296   58.3753   76.1772 C.ar    1  UNL1        0.0012
     16 C           0.6303   59.6754   76.1308 C.ar    1  UNL1        0.0193
     17 C           1.2884   60.6940   76.8172 C.ar    1  UNL1        0.0012
     18 C           2.4237   60.4083   77.5481 C.ar    1  UNL1       -0.0042
     19 C           3.8367   58.8699   79.8796 C.3     1  UNL1        0.0050
     20 C           4.1589   58.8116   78.3851 C.3     1  UNL1        0.0264
     21 C           0.5023   60.1073   72.9958 C.3     1  UNL1        0.1332
     22 N           0.9331   61.4713   72.6607 N.4     1  UNL1        0.2613
     23 H           1.9509   61.4934   72.5969 H       1  UNL1        0.2042
     24 H           0.6070   62.1038   73.3915 H       1  UNL1        0.2042
     25 C           0.3617   61.9036   71.3782 C.3     1  UNL1        0.1301
     26 C           1.4744   62.2796   70.4340 C.ar    1  UNL1        0.0338
     27 C           2.0443   61.3175   69.6201 C.ar    1  UNL1        0.0015
     28 C           3.0622   61.6594   68.7491 C.ar    1  UNL1        0.0011
     29 C           3.5202   62.9615   68.6968 C.ar    1  UNL1        0.0147
     30 C           2.9538   63.9287   69.5163 C.ar    1  UNL1        0.0502
     31 C           1.9278   63.5831   70.3865 C.ar    1  UNL1        0.0161
     32 N           3.4158   65.2485   69.4661 N.am    1  UNL1       -0.2819
     33 C           2.8350   66.1345   68.6330 C.2     1  UNL1        0.2563
     34 O           1.8574   65.8128   67.9913 O.2     1  UNL1       -0.2720
     35 H           4.1651   65.5298   70.0393 H       1  UNL1        0.1549
     36 C           3.4003   67.5251   68.4988 C.3     1  UNL1        0.2273
     37 O           3.8339   67.7352   67.1536 O.3     1  UNL1       -0.3417
     38 C           3.1644   68.8080   66.4880 C.3     1  UNL1        0.1748
@<TRIPOS>UNITY_ATOM_ATTR
22 1
charge 1
@<TRIPOS>BOND
     1    19    20    1
     2    20    13    1
     3    13    18   ar
     4    13    14   ar
     5    14    15   ar
     6    15    16   ar
     7    16    17   ar
     8    16     1    1
     9    17    18   ar
    10     1     5   ar
    11     1     2   ar
    12     2     3   ar
    13     2    21    1
    14     3     4   ar
    15     4     5   ar
    16     4     6    1
    17     6    11   ar
    18     6     7   ar
    19     7     8   ar
    20     8     9   ar
    21     9    10   ar
    22    10    11   ar
    23    11    12    1
    24    21    22    1
    25    22    25    1
    26    25    26    1
    27    26    31   ar
    28    26    27   ar
    29    27    28   ar
    30    28    29   ar
    31    29    30   ar
    32    30    31   ar
    33    30    32    1
    34    32    33   am
    35    33    34    2
    36    33    36    1
    37    36    37    1
    38    37    38    1
    39    22    23    1
    40    22    24    1
    41    32    35    1
#	Name:			ZINC28963266
#	Creating user name:	trannguyen
#	Creation time:		Thu Dec  1 16:45:04 2022


#	Modifying user name:	trannguyen
#	Modification time:	Thu Dec  1 16:45:04 2022

@<TRIPOS>MOLECULE
ZINC28963266
 23 24 0 0 0
SMALL
GASTEIGER

@<TRIPOS>ATOM
      1 C           3.5216   66.2626   69.1890 C.3     1  UNL1        0.1916
      2 C           5.1325   65.3486   66.8956 C.3     1  UNL1        0.0677
      3 C           4.8262   66.8121   67.2201 C.3     1  UNL1        0.0950
      4 C           4.7796   67.6194   65.9456 C.ar    1  UNL1        0.0870
      5 C           5.6312   67.5844   64.9102 C.ar    1  UNL1        0.0199
      6 C           5.1705   68.5156   63.9555 C.ar    1  UNL1        0.0200
      7 C           4.0503   69.0845   64.4511 C.ar    1  UNL1        0.0760
      8 N           3.8047   68.5425   65.6709 N.ar    1  UNL1       -0.3195
      9 C           2.7030   68.8489   66.5915 C.3     1  UNL1        0.1671
     10 C           3.0750   68.3125   67.9794 C.3     1  UNL1        0.1309
     11 N           3.5085   66.9125   67.8717 N.4     1  UNL1        0.2844
     12 H           2.8331   66.4217   67.2856 H       1  UNL1        0.2075
     13 C           2.6449   65.0374   69.1533 C.2     1  UNL1        0.2791
     14 O           1.7008   64.9891   68.3935 O.2     1  UNL1       -0.2687
     15 N           2.9098   63.9953   69.9658 N.am    1  UNL1       -0.2911
     16 H           3.6761   64.0345   70.5827 H       1  UNL1        0.1504
     17 C           2.0576   62.8042   69.9313 C.3     1  UNL1        0.1364
     18 C           2.1751   62.0543   71.2598 C.3     1  UNL1        0.0353
     19 C           2.5046   61.8901   68.7886 C.3     1  UNL1        0.0301
     20 C           3.9553   62.2070   68.4197 C.3     1  UNL1        0.0027
     21 C           2.3986   60.4297   69.2325 C.3     1  UNL1        0.0027
     22 C           0.6583   63.2081   69.7179 C.1     1  UNL1        0.0896
     23 N          -0.4215   63.5198   69.5531 N.1     1  UNL1       -0.1943
@<TRIPOS>UNITY_ATOM_ATTR
11 1
charge 1
@<TRIPOS>BOND
     1     2     3    1
     2     3    11    1
     3     3     4    1
     4     4     8   ar
     5     4     5   ar
     6     5     6   ar
     7     6     7   ar
     8     7     8   ar
     9     8     9    1
    10     9    10    1
    11    10    11    1
    12    11     1    1
    13     1    13    1
    14    13    14    2
    15    13    15   am
    16    15    17    1
    17    17    18    1
    18    17    22    1
    19    17    19    1
    20    22    23    3
    21    19    20    1
    22    19    21    1
    23    11    12    1
    24    15    16    1
#	Name:			ZINC29036620
#	Creating user name:	trannguyen
#	Creation time:		Thu Dec  1 16:45:04 2022


#	Modifying user name:	trannguyen
#	Modification time:	Thu Dec  1 16:45:04 2022

@<TRIPOS>MOLECULE
ZINC29036620
 44 48 0 0 0
SMALL
GASTEIGER

@<TRIPOS>ATOM
      1 C          -3.7752   60.5948   74.8406 C.ar    1  UNL1       -0.0158
      2 C          -2.9799   59.9939   75.8061 C.ar    1  UNL1       -0.0023
      3 C          -1.6481   59.7409   75.5557 C.ar    1  UNL1        0.0184
      4 C          -1.1005   60.0904   74.3287 C.ar    1  UNL1        0.0787
      5 C          -1.9063   60.6989   73.3516 C.ar    1  UNL1        0.0981
      6 C          -3.2536   60.9460   73.6280 C.ar    1  UNL1        0.0167
      7 N          -1.1151   60.9252   72.2715 N.ar    1  UNL1       -0.2292
      8 C           0.0928   60.5102   72.5195 C.ar    1  UNL1        0.1404
      9 N           0.1578   59.9816   73.7713 N.ar    1  UNL1       -0.3115
     10 C           1.3445   59.4089   74.4115 C.3     1  UNL1        0.1317
     11 C          -5.2289   60.8633   75.1332 C.3     1  UNL1        0.0589
     12 C          -5.9807   59.8349   75.9807 C.3     1  UNL1        0.0105
     13 C          -6.2626   59.9431   74.4808 C.3     1  UNL1        0.0105
     14 N          -4.6815   63.1915   75.5462 N.2     1  UNL1       -0.0850
     15 C          -5.6000   62.3136   75.3070 C.2     1  UNL1        0.1175
     16 C          -7.0129   62.7320   75.2039 C.ar    1  UNL1        0.0982
     17 C          -7.7990   62.8048   76.3543 C.ar    1  UNL1        0.0205
     18 C          -9.1211   63.1986   76.2411 C.ar    1  UNL1        0.0032
     19 C          -9.6150   63.5068   74.9815 C.ar    1  UNL1        0.0207
     20 C          -8.7794   63.4131   73.8826 C.ar    1  UNL1        0.0989
     21 N          -7.5236   63.0411   74.0176 N.ar    1  UNL1       -0.2425
     22 O          -5.0136   64.5671   75.5988 O.2     1  UNL1       -0.3652
     23 C          -5.1125   65.0908   76.9246 C.3     1  UNL1        0.3465
     24 C          -5.4872   66.5492   76.8619 C.2     1  UNL1        0.3650
     25 O          -4.9702   67.2711   76.0425 O.2     1  UNL1       -0.2458
     26 O          -6.3953   67.0462   77.7164 O.3     1  UNL1       -0.4459
     27 C          -8.8292   67.0075   77.6473 C.3     1  UNL1        0.0513
     28 C          -7.5605   66.2246   77.9915 C.3     1  UNL1        0.2087
     29 C           1.2506   60.5993   71.5589 C.3     1  UNL1        0.1522
     30 N           0.8548   61.3876   70.3892 N.pl3   1  UNL1       -0.3266
     31 H          -0.0509   61.2927   70.0151 H       1  UNL1        0.1472
     32 C           1.7597   62.2712   69.8065 C.ar    1  UNL1        0.0449
     33 C           1.8894   63.5629   70.3072 C.ar    1  UNL1        0.0145
     34 C           2.7876   64.4369   69.7364 C.ar    1  UNL1        0.0085
     35 C           3.5601   64.0295   68.6471 C.ar    1  UNL1        0.0775
     36 C           3.4239   62.7346   68.1430 C.ar    1  UNL1        0.0085
     37 C           2.5283   61.8628   68.7211 C.ar    1  UNL1        0.0145
     38 C           4.5213   64.9677   68.0286 C.2     1  UNL1        0.2674
     39 N           5.5832   65.3408   68.6862 N.2     1  UNL1       -0.2884
     40 N           4.2944   65.4479   66.7567 N.pl3   1  UNL1       -0.2497
     41 H           5.7453   64.9978   69.5947 H       1  UNL1        0.3009
     42 H           6.2231   65.9654   68.2744 H       1  UNL1        0.3009
     43 H           3.4924   65.1661   66.2600 H       1  UNL1        0.2883
     44 H           4.9343   66.0725   66.3449 H       1  UNL1        0.2883
@<TRIPOS>UNITY_ATOM_ATTR
39 1
charge 1
@<TRIPOS>BOND
     1    27    28    1
     2    28    26    1
     3    26    24    1
     4    24    25    2
     5    24    23    1
     6    23    22    1
     7    22    14    1
     8    14    15    2
     9    15    16    1
    10    15    11    1
    11    16    21   ar
    12    16    17   ar
    13    17    18   ar
    14    18    19   ar
    15    19    20   ar
    16    20    21   ar
    17    11    13    1
    18    11    12    1
    19    11     1    1
    20    12    13    1
    21     1     6   ar
    22     1     2   ar
    23     2     3   ar
    24     3     4   ar
    25     4     9   ar
    26     4     5   ar
    27     5     6   ar
    28     5     7   ar
    29     7     8   ar
    30     8     9   ar
    31     8    29    1
    32     9    10    1
    33    29    30    1
    34    30    32    1
    35    32    37   ar
    36    32    33   ar
    37    33    34   ar
    38    34    35   ar
    39    35    36   ar
    40    35    38    1
    41    36    37   ar
    42    38    39    2
    43    38    40    1
    44    30    31    1
    45    39    41    1
    46    39    42    1
    47    40    43    1
    48    40    44    1
#	Name:			ZINC29203466
#	Creating user name:	trannguyen
#	Creation time:		Thu Dec  1 16:45:04 2022


#	Modifying user name:	trannguyen
#	Modification time:	Thu Dec  1 16:45:04 2022

@<TRIPOS>MOLECULE
ZINC29203466
 34 36 0 0 0
SMALL
GASTEIGER

@<TRIPOS>ATOM
      1 C          -0.4959   59.6957   74.9986 C.ar    1  UNL1        0.1024
      2 C          -0.7719   60.3310   73.7030 C.ar    1  UNL1        0.0389
      3 C          -2.1056   60.0762   73.4229 C.ar    1  UNL1        0.0966
      4 N          -2.6085   59.3618   74.4401 N.ar    1  UNL1       -0.2490
      5 N          -1.6160   59.1389   75.3981 N.ar    1  UNL1       -0.1692
      6 C           2.2599   60.6181   77.3827 C.ar    1  UNL1        0.0006
      7 C           1.0520   60.6300   76.7148 C.ar    1  UNL1        0.0016
      8 C           0.7994   59.6877   75.7191 C.ar    1  UNL1        0.0199
      9 C           1.7674   58.7338   75.4076 C.ar    1  UNL1        0.0082
     10 C           2.9741   58.7346   76.0785 C.ar    1  UNL1        0.0346
     11 C           3.2189   59.6732   77.0664 C.ar    1  UNL1        0.0067
     12 BR          4.2918   57.4470   75.6525 Br      1  UNL1       -0.0490
     13 C           0.1720   61.0768   72.8728 C.2     1  UNL1        0.0180
     14 C           0.9159   60.4200   71.9140 C.2     1  UNL1        0.1217
     15 C           1.7527   61.1869   70.9800 C.2     1  UNL1        0.2556
     16 O           2.9385   60.9344   70.8778 O.2     1  UNL1       -0.2694
     17 N           1.2065   62.1698   70.2371 N.am    1  UNL1       -0.2999
     18 H           0.2470   62.3742   70.3198 H       1  UNL1        0.1498
     19 C           2.0405   62.9341   69.3063 C.3     1  UNL1        0.0949
     20 C           2.3586   64.3025   69.9122 C.3     1  UNL1        0.0542
     21 C           3.3527   65.0208   69.0366 C.ar    1  UNL1        0.0090
     22 C           4.6702   64.7619   68.8509 C.ar    1  UNL1        0.0027
     23 C           5.3971   65.5660   67.9932 C.ar    1  UNL1        0.0072
     24 C           4.7682   66.5828   67.3542 C.ar    1  UNL1        0.0351
     25 S           3.1006   66.4330   67.9739 S.2     1  UNL1       -0.0907
     26 C           0.8728   58.9911   71.8289 C.1     1  UNL1        0.1050
     27 N           0.8386   57.8576   71.7613 N.1     1  UNL1       -0.1907
     28 C          -3.9909   58.8858   74.5328 C.3     1  UNL1        0.1371
     29 C          -4.7914   59.8183   75.4441 C.3     1  UNL1        0.1111
     30 C          -5.9268   60.4299   74.6645 C.2     1  UNL1        0.2214
     31 O          -5.8538   61.5808   74.2889 O.2     1  UNL1       -0.2753
     32 N          -7.0234   59.6980   74.3847 N.am    1  UNL1       -0.3287
     33 H          -7.0827   58.7638   74.6896 H       1  UNL1        0.1449
     34 H          -7.7651   60.0976   73.8754 H       1  UNL1        0.1449
@<TRIPOS>BOND
     1     6    11   ar
     2     6     7   ar
     3     7     8   ar
     4     8     9   ar
     5     8     1    1
     6     9    10   ar
     7    10    11   ar
     8    10    12    1
     9     1     5   ar
    10     1     2   ar
    11     2     3   ar
    12     2    13    1
    13     3     4   ar
    14     4     5   ar
    15     4    28    1
    16    28    29    1
    17    29    30    1
    18    30    31    2
    19    30    32   am
    20    13    14    2
    21    14    26    1
    22    14    15    1
    23    26    27    3
    24    15    16    2
    25    15    17   am
    26    17    19    1
    27    19    20    1
    28    20    21    1
    29    21    25   ar
    30    21    22   ar
    31    22    23   ar
    32    23    24   ar
    33    24    25   ar
    34    32    33    1
    35    32    34    1
    36    17    18    1
#	Name:			ZINC29454962
#	Creating user name:	trannguyen
#	Creation time:		Thu Dec  1 16:45:04 2022


#	Modifying user name:	trannguyen
#	Modification time:	Thu Dec  1 16:45:04 2022

@<TRIPOS>MOLECULE
ZINC29454962
 29 32 0 0 0
SMALL
GASTEIGER

@<TRIPOS>ATOM
      1 N          -0.8816   60.0920   73.9964 N.4     1  UNL1        0.2896
      2 C          -1.3828   59.7224   75.3275 C.3     1  UNL1        0.1679
      3 C          -2.8525   59.3092   75.2196 C.3     1  UNL1        0.1678
      4 N          -3.6315   60.4207   74.6562 N.4     1  UNL1        0.2884
      5 C          -3.1302   60.7899   73.3250 C.3     1  UNL1        0.1678
      6 C          -1.6606   61.2035   73.4330 C.3     1  UNL1        0.1679
      7 H          -0.9949   59.2854   73.3823 H       1  UNL1        0.2076
      8 H          -3.5185   61.2273   75.2702 H       1  UNL1        0.2076
      9 C           0.5487   60.4234   74.0458 C.3     1  UNL1        0.1531
     10 C           2.0171   61.8311   70.9785 C.ar    1  UNL1        0.1450
     11 N           1.5353   61.6990   72.2092 N.ar    1  UNL1       -0.2337
     12 C           1.0849   60.5450   72.6427 C.ar    1  UNL1        0.1211
     13 C           1.0971   59.4611   71.8227 C.ar    1  UNL1        0.0575
     14 S           1.8124   60.1715   70.3454 S.2     1  UNL1       -0.0631
     15 C           3.9329   64.4684   69.3215 C.ar    1  UNL1        0.0439
     16 C           3.8547   63.1894   69.9048 C.ar    1  UNL1        0.0428
     17 C           2.5655   63.0231   70.3134 C.ar    1  UNL1        0.1691
     18 O           1.8817   64.1434   70.0071 O.2     1  UNL1       -0.4484
     19 C           2.7051   65.0185   69.4077 C.ar    1  UNL1        0.1797
     20 C          -5.0618   60.0893   74.6067 C.3     1  UNL1        0.1356
     21 C          -5.8687   61.2768   75.0649 C.ar    1  UNL1        0.0607
     22 C          -5.2394   62.4733   75.3353 C.ar    1  UNL1        0.0139
     23 C          -5.9893   63.5745   75.7544 C.ar    1  UNL1        0.0685
     24 C          -7.3726   63.4535   75.9076 C.ar    1  UNL1        0.0126
     25 C          -7.9903   62.2509   75.6398 C.ar    1  UNL1        0.0302
     26 C          -7.2414   61.1624   75.2191 C.ar    1  UNL1        0.1417
     27 F          -7.8523   59.9860   74.9579 F       1  UNL1       -0.2043
     28 C          -5.3418   64.8215   76.0312 C.1     1  UNL1        0.1004
     29 N          -4.8282   65.8107   76.2507 N.1     1  UNL1       -0.1908
@<TRIPOS>UNITY_ATOM_ATTR
1 1
charge 1
4 1
charge 1
@<TRIPOS>BOND
     1    15    19   ar
     2    15    16   ar
     3    16    17   ar
     4    17    18   ar
     5    17    10    1
     6    18    19   ar
     7    10    14   ar
     8    10    11   ar
     9    11    12   ar
    10    12    13   ar
    11    12     9    1
    12    13    14   ar
    13     9     1    1
    14     1     6    1
    15     1     2    1
    16     2     3    1
    17     3     4    1
    18     4     5    1
    19     4    20    1
    20     5     6    1
    21    20    21    1
    22    21    26   ar
    23    21    22   ar
    24    22    23   ar
    25    23    24   ar
    26    23    28    1
    27    24    25   ar
    28    25    26   ar
    29    26    27    1
    30    28    29    3
    31     1     7    1
    32     4     8    1
#	Name:			ZINC29464521
#	Creating user name:	trannguyen
#	Creation time:		Thu Dec  1 16:45:04 2022


#	Modifying user name:	trannguyen
#	Modification time:	Thu Dec  1 16:45:04 2022

@<TRIPOS>MOLECULE
ZINC29464521
 43 47 0 0 0
SMALL
GASTEIGER

@<TRIPOS>ATOM
      1 C           1.7581   61.9572   70.5544 C.ar    1  UNL1        0.1450
      2 C           2.9474   61.3854   70.2113 C.ar    1  UNL1        0.0406
      3 C           3.6504   62.3298   69.4481 C.ar    1  UNL1        0.0406
      4 C           2.8632   63.4400   69.3657 C.ar    1  UNL1        0.1450
      5 O           1.7194   63.2007   70.0366 O.2     1  UNL1       -0.4535
      6 C           1.9847   59.1638   71.2575 C.3     1  UNL1        0.0312
      7 C           0.7927   59.9714   71.7023 C.ar    1  UNL1       -0.0155
      8 C          -0.1919   59.3837   72.4446 C.ar    1  UNL1        0.0360
      9 C          -1.2980   60.1332   72.8578 C.ar    1  UNL1        0.1352
     10 C          -1.3959   61.4849   72.5107 C.ar    1  UNL1        0.0402
     11 C          -0.4089   62.0737   71.7732 C.ar    1  UNL1        0.0062
     12 C           0.6947   61.3226   71.3555 C.ar    1  UNL1        0.0308
     13 N          -2.2829   59.5454   73.5997 N.pl3   1  UNL1       -0.2025
     14 H          -2.6935   58.7043   73.2945 H       1  UNL1        0.2984
     15 C          -2.6817   60.1020   74.7193 C.2     1  UNL1        0.2744
     16 N          -1.7683   60.3887   75.7094 N.2     1  UNL1       -0.2880
     17 H          -0.8162   60.1762   75.5772 H       1  UNL1        0.3009
     18 H          -2.0675   60.8062   76.5492 H       1  UNL1        0.3009
     19 C          -4.1107   60.4210   74.9177 C.ar    1  UNL1        0.0780
     20 C          -5.0315   59.3980   75.1524 C.ar    1  UNL1        0.0072
     21 C          -6.3635   59.7031   75.3411 C.ar    1  UNL1        0.0002
     22 C          -6.7892   61.0187   75.2886 C.ar    1  UNL1        0.0000
     23 C          -5.8829   62.0368   75.0513 C.ar    1  UNL1        0.0002
     24 C          -4.5472   61.7461   74.8656 C.ar    1  UNL1        0.0072
     25 C           3.2033   64.6882   68.6575 C.ar    1  UNL1        0.0308
     26 C           3.1272   65.9146   69.3257 C.ar    1  UNL1        0.0062
     27 C           3.4467   67.0698   68.6714 C.ar    1  UNL1        0.0402
     28 C           3.8411   67.0276   67.3299 C.ar    1  UNL1        0.1352
     29 C           3.9177   65.8014   66.6619 C.ar    1  UNL1        0.0360
     30 C           3.6022   64.6455   67.3178 C.ar    1  UNL1       -0.0155
     31 C           3.6846   63.3241   66.5980 C.3     1  UNL1        0.0312
     32 N           4.1569   68.1836   66.6741 N.pl3   1  UNL1       -0.2025
     33 H           4.9406   68.7098   66.9538 H       1  UNL1        0.2984
     34 C           3.4157   68.5927   65.6713 C.2     1  UNL1        0.2744
     35 N           2.0848   68.8839   65.8726 N.2     1  UNL1       -0.2880
     36 H           1.6895   68.7852   66.7688 H       1  UNL1        0.3009
     37 H           1.5288   69.1908   65.1204 H       1  UNL1        0.3009
     38 C           4.0091   68.7408   64.3263 C.ar    1  UNL1        0.0780
     39 C           3.2365   68.4999   63.1885 C.ar    1  UNL1        0.0072
     40 C           3.7958   68.6443   61.9358 C.ar    1  UNL1        0.0002
     41 C           5.1218   69.0175   61.8054 C.ar    1  UNL1        0.0000
     42 C           5.8945   69.2526   62.9288 C.ar    1  UNL1        0.0002
     43 C           5.3467   69.1167   64.1875 C.ar    1  UNL1        0.0072
@<TRIPOS>UNITY_ATOM_ATTR
16 1
charge 1
35 1
charge 1
@<TRIPOS>BOND
     1     6     7    1
     2     7    12   ar
     3     7     8   ar
     4     8     9   ar
     5     9    10   ar
     6     9    13    1
     7    10    11   ar
     8    11    12   ar
     9    12     1    1
    10     1     5   ar
    11     1     2   ar
    12     2     3   ar
    13     3     4   ar
    14     4     5   ar
    15     4    25    1
    16    25    30   ar
    17    25    26   ar
    18    26    27   ar
    19    27    28   ar
    20    28    29   ar
    21    28    32    1
    22    29    30   ar
    23    30    31    1
    24    32    34    1
    25    34    38    1
    26    34    35    2
    27    38    43   ar
    28    38    39   ar
    29    39    40   ar
    30    40    41   ar
    31    41    42   ar
    32    42    43   ar
    33    13    15    1
    34    15    19    1
    35    15    16    2
    36    19    24   ar
    37    19    20   ar
    38    20    21   ar
    39    21    22   ar
    40    22    23   ar
    41    23    24   ar
    42    32    33    1
    43    35    36    1
    44    35    37    1
    45    13    14    1
    46    16    17    1
    47    16    18    1
#	Name:			ZINC29492411
#	Creating user name:	trannguyen
#	Creation time:		Thu Dec  1 16:45:04 2022


#	Modifying user name:	trannguyen
#	Modification time:	Thu Dec  1 16:45:04 2022

@<TRIPOS>MOLECULE
ZINC29492411
 40 43 0 0 0
SMALL
GASTEIGER

@<TRIPOS>ATOM
      1 C           0.7066   59.6885   76.1493 C.ar    1  UNL1        0.0509
      2 C          -0.3662   59.8100   77.0309 C.ar    1  UNL1        0.0147
      3 C          -1.6341   59.9808   76.5555 C.ar    1  UNL1        0.0043
      4 C          -1.8648   60.0353   75.1740 C.ar    1  UNL1        0.0348
      5 C          -0.7842   59.9130   74.2813 C.ar    1  UNL1        0.1402
      6 C           0.4954   59.7403   74.7765 C.ar    1  UNL1        0.0514
      7 C          -3.2244   60.2191   74.6620 C.2     1  UNL1        0.0149
      8 C          -4.1992   59.3178   74.9761 C.2     1  UNL1        0.0886
      9 C          -3.8445   58.0494   75.6494 C.ar    1  UNL1        0.1232
     10 C          -4.1447   57.6887   77.0406 C.ar    1  UNL1        0.1194
     11 C          -3.6262   56.4120   77.2332 C.ar    1  UNL1        0.1380
     12 N          -3.0578   56.0220   76.0646 N.ar    1  UNL1       -0.2158
     13 N          -3.2071   57.0333   75.1118 N.ar    1  UNL1       -0.1625
     14 N          -3.6807   55.6758   78.4007 N.pl3   1  UNL1       -0.3420
     15 H          -4.1184   56.0505   79.1990 H       1  UNL1        0.1437
     16 H          -3.2819   54.7764   78.4346 H       1  UNL1        0.1437
     17 C          -2.4230   54.7930   75.8455 C.ar    1  UNL1        0.0842
     18 C          -1.1462   54.5707   76.3446 C.ar    1  UNL1        0.0192
     19 C          -0.5250   53.3557   76.1313 C.ar    1  UNL1        0.0015
     20 C          -1.1687   52.3651   75.4124 C.ar    1  UNL1        0.0001
     21 C          -2.4380   52.5854   74.9097 C.ar    1  UNL1        0.0015
     22 C          -3.0667   53.7962   75.1239 C.ar    1  UNL1        0.0192
     23 C          -4.8335   58.4909   78.0064 C.1     1  UNL1        0.1048
     24 N          -5.3799   59.1273   78.7725 N.1     1  UNL1       -0.1907
     25 C          -5.5658   59.5999   74.6543 C.1     1  UNL1        0.1020
     26 N          -6.6498   59.8237   74.3991 N.1     1  UNL1       -0.1908
     27 N           1.9951   59.5146   76.6461 N.pl3   1  UNL1       -0.3074
     28 C           2.1002   57.0757   76.4975 C.3     1  UNL1        0.0232
     29 C           2.8138   58.3918   76.1820 C.3     1  UNL1        0.0908
     30 C           2.5327   60.4543   77.6331 C.3     1  UNL1        0.0908
     31 C           3.6075   59.7566   78.4690 C.3     1  UNL1        0.0232
     32 O          -0.9963   59.9648   72.9419 O.3     1  UNL1       -0.4706
     33 C          -1.0843   61.2618   72.3486 C.3     1  UNL1        0.2320
     34 C           0.0534   61.4486   71.3781 C.ar    1  UNL1        0.0212
     35 C           1.0277   60.4750   71.2602 C.ar    1  UNL1        0.0002
     36 C           2.0684   60.6431   70.3662 C.ar    1  UNL1        0.0112
     37 C           2.1410   61.7912   69.5975 C.ar    1  UNL1        0.0577
     38 C           1.1686   62.7678   69.7203 C.ar    1  UNL1        0.0112
     39 C           0.1254   62.5960   70.6104 C.ar    1  UNL1        0.0002
     40 CL          3.4512   62.0061   68.4792 Cl      1  UNL1       -0.0822
@<TRIPOS>BOND
     1    28    29    1
     2    29    27    1
     3    27    30    1
     4    27     1    1
     5    30    31    1
     6     1     6   ar
     7     1     2   ar
     8     2     3   ar
     9     3     4   ar
    10     4     5   ar
    11     4     7    1
    12     5     6   ar
    13     5    32    1
    14    32    33    1
    15    33    34    1
    16    34    39   ar
    17    34    35   ar
    18    35    36   ar
    19    36    37   ar
    20    37    38   ar
    21    37    40    1
    22    38    39   ar
    23     7     8    2
    24     8    25    1
    25     8     9    1
    26    25    26    3
    27     9    13   ar
    28     9    10   ar
    29    10    11   ar
    30    10    23    1
    31    11    12   ar
    32    11    14    1
    33    12    13   ar
    34    12    17    1
    35    17    22   ar
    36    17    18   ar
    37    18    19   ar
    38    19    20   ar
    39    20    21   ar
    40    21    22   ar
    41    23    24    3
    42    14    15    1
    43    14    16    1
#	Name:			ZINC29579857
#	Creating user name:	trannguyen
#	Creation time:		Thu Dec  1 16:45:04 2022


#	Modifying user name:	trannguyen
#	Modification time:	Thu Dec  1 16:45:04 2022

@<TRIPOS>MOLECULE
ZINC29579857
 18 19 0 0 0
SMALL
GASTEIGER

@<TRIPOS>ATOM
      1 C           3.1866   59.6560   69.1187 C.3     1  UNL1        0.0018
      2 C           2.7244   60.9731   69.7453 C.3     1  UNL1        0.0199
      3 C           1.3127   60.8018   70.3111 C.3     1  UNL1        0.0034
      4 C           0.8623   62.1090   70.9672 C.3     1  UNL1        0.0199
      5 C           0.8291   63.2199   69.9128 C.3     1  UNL1        0.0936
      6 N           2.1442   63.2934   69.2619 N.am    1  UNL1       -0.2739
      7 C           2.7098   62.0723   68.6722 C.3     1  UNL1        0.0936
      8 C           2.8164   64.4600   69.2018 C.2     1  UNL1        0.3053
      9 O           2.3365   65.4622   69.6880 O.2     1  UNL1       -0.2673
     10 C           1.8442   62.4879   72.0776 C.3     1  UNL1        0.0018
     11 C           4.1644   64.5192   68.5307 C.3     1  UNL1        0.4094
     12 N           4.2425   65.7215   67.6971 N.ar    1  UNL1       -0.1328
     13 C           5.0777   65.8956   66.6617 C.ar    1  UNL1        0.3210
     14 C           4.8545   67.1217   66.1478 C.ar    1  UNL1        0.1940
     15 N           3.8608   67.6903   66.8980 N.ar    1  UNL1       -0.2525
     16 C           3.5109   66.7916   67.8449 C.ar    1  UNL1        0.3819
     17 C           3.2846   69.0240   66.7100 C.3     1  UNL1        0.1375
     18 CL          5.6662   67.8386   64.7911 Cl      1  UNL1       -0.0566
@<TRIPOS>UNITY_ATOM_ATTR
12 1
charge 1
@<TRIPOS>BOND
     1     1     2    1
     2     2     7    1
     3     2     3    1
     4     3     4    1
     5     4     5    1
     6     4    10    1
     7     5     6    1
     8     6     7    1
     9     6     8   am
    10     8     9    2
    11     8    11    1
    12    11    12    1
    13    12    16   ar
    14    12    13   ar
    15    13    14   ar
    16    14    15   ar
    17    14    18    1
    18    15    16   ar
    19    15    17    1
#	Name:			ZINC29759498
#	Creating user name:	trannguyen
#	Creation time:		Thu Dec  1 16:45:04 2022


#	Modifying user name:	trannguyen
#	Modification time:	Thu Dec  1 16:45:04 2022

@<TRIPOS>MOLECULE
ZINC29759498
 26 28 0 0 0
SMALL
GASTEIGER

@<TRIPOS>ATOM
      1 C           2.4526   64.3978   69.7387 C.3     1  UNL1        0.1150
      2 N           3.6144   63.5823   69.3759 N.am    1  UNL1       -0.2737
      3 C           3.4404   62.3227   68.9292 C.2     1  UNL1        0.2303
      4 O           4.4022   61.6476   68.6290 O.2     1  UNL1       -0.2745
      5 C           4.9651   64.1360   69.4987 C.3     1  UNL1        0.1407
      6 C           4.9472   65.6155   69.1092 C.3     1  UNL1        0.2269
      7 O           5.3031   65.7497   67.7316 O.3     1  UNL1       -0.4713
      8 C           4.7533   66.7900   67.0507 C.ar    1  UNL1        0.1659
      9 C           3.6689   67.4721   67.5814 C.ar    1  UNL1        0.0392
     10 C           3.1144   68.5320   66.8896 C.ar    1  UNL1        0.0033
     11 C           3.6329   68.9072   65.6640 C.ar    1  UNL1        0.0025
     12 C           4.7109   68.2268   65.1289 C.ar    1  UNL1        0.0328
     13 C           5.2732   67.1681   65.8193 C.ar    1  UNL1        0.1738
     14 F           6.3261   66.5024   65.2963 F       1  UNL1       -0.2010
     15 C           2.0510   61.7531   68.8030 C.3     1  UNL1        0.1146
     16 C           1.8658   60.6516   69.8147 C.ar    1  UNL1        0.0216
     17 C           2.5799   59.4755   69.6936 C.ar    1  UNL1        0.0106
     18 C           2.4100   58.4639   70.6219 C.ar    1  UNL1        0.0573
     19 C           1.5237   58.6280   71.6714 C.ar    1  UNL1        0.0125
     20 C           0.8071   59.8033   71.7960 C.ar    1  UNL1        0.0420
     21 C           0.9820   60.8214   70.8713 C.ar    1  UNL1        0.1363
     22 O           0.2850   61.9838   70.9835 O.3     1  UNL1       -0.4485
     23 C          -0.8571   61.9734   71.8449 C.3     1  UNL1        0.3612
     24 O          -0.4897   61.3549   73.0837 O.3     1  UNL1       -0.3108
     25 C          -0.1589   59.9701   72.9417 C.3     1  UNL1        0.1756
     26 CL          3.3095   56.9869   70.4695 Cl      1  UNL1       -0.0823
@<TRIPOS>BOND
     1     1     2    1
     2     2     5    1
     3     2     3   am
     4     5     6    1
     5     6     7    1
     6     7     8    1
     7     8    13   ar
     8     8     9   ar
     9     9    10   ar
    10    10    11   ar
    11    11    12   ar
    12    12    13   ar
    13    13    14    1
    14     3     4    2
    15     3    15    1
    16    15    16    1
    17    16    21   ar
    18    16    17   ar
    19    17    18   ar
    20    18    19   ar
    21    18    26    1
    22    19    20   ar
    23    20    25    1
    24    20    21   ar
    25    21    22    1
    26    22    23    1
    27    23    24    1
    28    24    25    1
#	Name:			ZINC29792488
#	Creating user name:	trannguyen
#	Creation time:		Thu Dec  1 16:45:04 2022


#	Modifying user name:	trannguyen
#	Modification time:	Thu Dec  1 16:45:04 2022

@<TRIPOS>MOLECULE
ZINC29792488
 33 36 0 0 0
SMALL
GASTEIGER

@<TRIPOS>ATOM
      1 N           3.3234   64.3520   68.9076 N.am    1  UNL1       -0.2593
      2 C           2.9803   63.1940   68.3097 C.2     1  UNL1        0.2704
      3 O           2.9501   63.1218   67.0965 O.2     1  UNL1       -0.2680
      4 H           3.3480   64.4104   69.8900 H       1  UNL1        0.1571
      5 C           2.6406   62.0113   69.1291 C.ar    1  UNL1        0.1546
      6 C           3.0535   60.7223   68.7131 C.ar    1  UNL1        0.0304
      7 C           2.7223   59.6556   69.4947 C.ar    1  UNL1        0.0639
      8 C           1.9856   59.9028   70.6744 C.ar    1  UNL1        0.2766
      9 O           1.6673   58.9789   71.4045 O.2     1  UNL1       -0.2655
     10 N           1.6375   61.1649   70.9877 N.ar    1  UNL1       -0.2126
     11 N           1.9611   62.1603   70.2441 N.ar    1  UNL1       -0.1621
     12 C           0.8739   61.4099   72.2137 C.3     1  UNL1        0.1779
     13 C          -0.6080   61.5689   71.8683 C.3     1  UNL1        0.2317
     14 O          -1.3141   62.0549   73.0116 O.3     1  UNL1       -0.4733
     15 C          -1.9554   61.1341   73.7782 C.ar    1  UNL1        0.1386
     16 C          -1.2432   60.3786   74.6983 C.ar    1  UNL1        0.0369
     17 C          -1.8983   59.4469   75.4801 C.ar    1  UNL1        0.0031
     18 C          -3.2609   59.2596   75.3387 C.ar    1  UNL1        0.0002
     19 C          -3.9720   60.0072   74.4183 C.ar    1  UNL1        0.0031
     20 C          -3.3224   60.9438   73.6379 C.ar    1  UNL1        0.0369
     21 C           3.8806   67.7345   66.7961 C.ar    1  UNL1        0.0334
     22 C           4.8688   66.8085   66.7354 C.ar    1  UNL1        0.1034
     23 N           4.7221   65.6875   67.4140 N.ar    1  UNL1       -0.2227
     24 C           3.6425   65.4631   68.1378 C.ar    1  UNL1        0.1655
     25 S           2.7255   66.9163   67.8867 S.2     1  UNL1       -0.0554
     26 C           3.7854   69.0840   66.1323 C.3     1  UNL1        0.0609
     27 C           2.4928   68.3361   61.3558 C.3     1  UNL1        0.0310
     28 C           3.5513   68.6002   62.3954 C.ar    1  UNL1       -0.0222
     29 C           4.8751   68.7274   62.0173 C.ar    1  UNL1       -0.0043
     30 C           5.8458   68.9701   62.9707 C.ar    1  UNL1       -0.0006
     31 C           5.4931   69.0858   64.3025 C.ar    1  UNL1       -0.0039
     32 C           4.1698   68.9580   64.6806 C.ar    1  UNL1       -0.0175
     33 C           3.1987   68.7158   63.7268 C.ar    1  UNL1       -0.0082
@<TRIPOS>BOND
     1    27    28    1
     2    28    33   ar
     3    28    29   ar
     4    29    30   ar
     5    30    31   ar
     6    31    32   ar
     7    32    33   ar
     8    32    26    1
     9    26    21    1
    10    21    25   ar
    11    21    22   ar
    12    22    23   ar
    13    23    24   ar
    14    24    25   ar
    15    24     1    1
    16     1     2   am
    17     2     3    2
    18     2     5    1
    19     5    11   ar
    20     5     6   ar
    21     6     7   ar
    22     7     8   ar
    23     8     9    2
    24     8    10   ar
    25    10    11   ar
    26    10    12    1
    27    12    13    1
    28    13    14    1
    29    14    15    1
    30    15    20   ar
    31    15    16   ar
    32    16    17   ar
    33    17    18   ar
    34    18    19   ar
    35    19    20   ar
    36     1     4    1
#	Name:			ZINC29853056
#	Creating user name:	trannguyen
#	Creation time:		Thu Dec  1 16:45:04 2022


#	Modifying user name:	trannguyen
#	Modification time:	Thu Dec  1 16:45:04 2022

@<TRIPOS>MOLECULE
ZINC29853056
 30 33 0 0 0
SMALL
GASTEIGER

@<TRIPOS>ATOM
      1 C           0.3485   59.8524   72.0780 C.2     1  UNL1        0.2495
      2 O           0.4980   58.6469   72.0049 O.2     1  UNL1       -0.2699
      3 N           1.2035   60.6773   71.4417 N.am    1  UNL1       -0.2646
      4 C           2.3914   60.1490   70.7540 C.3     1  UNL1        0.1549
      5 C           2.4103   60.7113   69.3238 C.3     1  UNL1        0.1277
      6 N           2.3253   62.1768   69.3781 N.4     1  UNL1        0.2831
      7 C           1.0544   62.6152   69.9700 C.3     1  UNL1        0.1277
      8 C           0.9765   62.1304   71.4216 C.3     1  UNL1        0.1549
      9 H           3.0788   62.5091   69.9800 H       1  UNL1        0.2072
     10 C          -1.5582   59.5883   73.5714 C.2     1  UNL1        0.0043
     11 C          -0.7639   60.4065   72.8525 C.2     1  UNL1        0.0579
     12 C          -5.9241   61.7659   76.6128 C.3     1  UNL1        0.0310
     13 C          -4.7799   61.1948   75.8154 C.ar    1  UNL1       -0.0222
     14 C          -4.6673   61.4862   74.4670 C.ar    1  UNL1       -0.0043
     15 C          -3.6206   60.9715   73.7319 C.ar    1  UNL1       -0.0006
     16 C          -2.6764   60.1454   74.3501 C.ar    1  UNL1       -0.0038
     17 C          -2.7968   59.8560   75.7126 C.ar    1  UNL1       -0.0222
     18 C          -3.8469   60.3821   76.4354 C.ar    1  UNL1       -0.0085
     19 C          -1.7815   58.9721   76.3898 C.3     1  UNL1        0.0310
     20 C           2.5160   62.7650   68.0456 C.3     1  UNL1        0.1528
     21 C           3.5044   63.8993   68.1341 C.ar    1  UNL1        0.1210
     22 C           4.3792   63.9601   69.1725 C.ar    1  UNL1        0.0575
     23 S           5.2701   65.4570   68.7677 S.2     1  UNL1       -0.0631
     24 C           4.3830   65.8387   67.2630 C.ar    1  UNL1        0.1450
     25 N           3.5250   64.8265   67.2054 N.ar    1  UNL1       -0.2337
     26 C           4.5602   66.9666   66.3353 C.ar    1  UNL1        0.1691
     27 C           3.8581   68.1342   66.3520 C.ar    1  UNL1        0.0428
     28 C           4.3555   68.9211   65.2958 C.ar    1  UNL1        0.0439
     29 C           5.3200   68.2024   64.6869 C.ar    1  UNL1        0.1797
     30 O           5.4413   67.0228   65.3170 O.2     1  UNL1       -0.4484
@<TRIPOS>UNITY_ATOM_ATTR
6 1
charge 1
@<TRIPOS>BOND
     1    12    13    1
     2    13    18   ar
     3    13    14   ar
     4    14    15   ar
     5    15    16   ar
     6    16    17   ar
     7    16    10    1
     8    17    18   ar
     9    17    19    1
    10    10    11    2
    11    11     1    1
    12     1     2    2
    13     1     3   am
    14     3     8    1
    15     3     4    1
    16     4     5    1
    17     5     6    1
    18     6     7    1
    19     6    20    1
    20     7     8    1
    21    20    21    1
    22    21    25   ar
    23    21    22   ar
    24    22    23   ar
    25    23    24   ar
    26    24    25   ar
    27    24    26    1
    28    26    30   ar
    29    26    27   ar
    30    27    28   ar
    31    28    29   ar
    32    29    30   ar
    33     6     9    1
#	Name:			ZINC29887375
#	Creating user name:	trannguyen
#	Creation time:		Thu Dec  1 16:45:04 2022


#	Modifying user name:	trannguyen
#	Modification time:	Thu Dec  1 16:45:04 2022

@<TRIPOS>MOLECULE
ZINC29887375
 35 37 0 0 0
SMALL
GASTEIGER

@<TRIPOS>ATOM
      1 C          -1.6558   59.8060   74.1869 C.ar    1  UNL1        0.1652
      2 N          -2.8573   59.3291   74.0189 N.ar    1  UNL1       -0.1452
      3 N          -3.3595   58.9650   75.2757 N.ar    1  UNL1       -0.1773
      4 C          -2.4044   59.2366   76.1886 C.ar    1  UNL1        0.1852
      5 S          -2.5140   58.9695   77.8760 S.2     1  UNL1       -0.0110
      6 N          -1.3478   59.7557   75.5321 N.ar    1  UNL1       -0.2870
      7 C           0.8919   61.2523   71.1097 C.ar    1  UNL1       -0.0228
      8 C           1.1531   60.0298   71.7025 C.ar    1  UNL1       -0.0042
      9 C           0.3297   59.5548   72.7026 C.ar    1  UNL1        0.0027
     10 C          -0.7684   60.3098   73.1153 C.ar    1  UNL1        0.0359
     11 C          -1.0297   61.5390   72.5096 C.ar    1  UNL1        0.0027
     12 C          -0.1958   62.0055   71.5141 C.ar    1  UNL1       -0.0042
     13 C           2.9955   62.4798   70.6434 C.3     1  UNL1        0.0044
     14 C           1.7956   61.7653   70.0183 C.3     1  UNL1        0.0189
     15 C           2.2868   60.5914   69.1690 C.3     1  UNL1        0.0044
     16 C           1.0221   62.7458   69.1344 C.3     1  UNL1        0.0044
     17 C          -0.0887   60.1916   76.1410 C.3     1  UNL1        0.1359
     18 C           0.8056   58.9977   76.3553 C.2     1  UNL1       -0.0017
     19 C           2.0448   59.0230   75.9311 C.2     1  UNL1       -0.0029
     20 C          -4.6786   58.3888   75.5475 C.3     1  UNL1        0.2437
     21 N          -5.5686   59.4309   76.0770 N.4     1  UNL1        0.3031
     22 C          -6.2806   58.9578   77.2716 C.3     1  UNL1        0.1698
     23 H          -4.9917   60.2264   76.3504 H       1  UNL1        0.2096
     24 C          -6.5121   59.8897   75.0489 C.3     1  UNL1        0.1352
     25 C          -6.5184   61.3962   75.0094 C.ar    1  UNL1        0.0327
     26 C          -7.6947   62.0732   74.7409 C.ar    1  UNL1        0.0015
     27 C          -7.7074   63.4522   74.7038 C.ar    1  UNL1        0.0044
     28 C          -6.5301   64.1644   74.9379 C.ar    1  UNL1        0.0531
     29 C          -5.3469   63.4752   75.2082 C.ar    1  UNL1        0.0044
     30 C          -5.3479   62.0961   75.2424 C.ar    1  UNL1        0.0015
     31 C          -6.5363   65.6423   74.8993 C.2     1  UNL1        0.2427
     32 O          -6.5738   66.2772   75.9351 O.2     1  UNL1       -0.2704
     33 N          -6.5006   66.2858   73.7154 N.am    1  UNL1       -0.3253
     34 H          -6.4703   65.7715   72.8764 H       1  UNL1        0.1453
     35 H          -6.5049   67.2699   73.6898 H       1  UNL1        0.1453
@<TRIPOS>UNITY_ATOM_ATTR
21 1
charge 1
@<TRIPOS>BOND
     1    13    14    1
     2    14    15    1
     3    14    16    1
     4    14     7    1
     5     7    12   ar
     6     7     8   ar
     7     8     9   ar
     8     9    10   ar
     9    10    11   ar
    10    10     1    1
    11    11    12   ar
    12     1     6   ar
    13     1     2   ar
    14     2     3   ar
    15     3     4   ar
    16     3    20    1
    17     4     5    2
    18     4     6   ar
    19     6    17    1
    20    17    18    1
    21    18    19    2
    22    20    21    1
    23    21    22    1
    24    21    24    1
    25    24    25    1
    26    25    30   ar
    27    25    26   ar
    28    26    27   ar
    29    27    28   ar
    30    28    29   ar
    31    28    31    1
    32    29    30   ar
    33    31    32    2
    34    31    33   am
    35    21    23    1
    36    33    34    1
    37    33    35    1
#	Name:			ZINC30030114
#	Creating user name:	trannguyen
#	Creation time:		Thu Dec  1 16:45:04 2022


#	Modifying user name:	trannguyen
#	Modification time:	Thu Dec  1 16:45:04 2022

@<TRIPOS>MOLECULE
ZINC30030114
 30 33 0 0 0
SMALL
GASTEIGER

@<TRIPOS>ATOM
      1 C           1.5394   56.7355   77.5780 C.3     1  UNL1        0.1673
      2 N           0.9895   57.9988   77.0686 N.4     1  UNL1        0.2833
      3 C           1.6563   58.3989   75.8223 C.3     1  UNL1        0.1275
      4 C           1.1858   59.8014   75.4225 C.3     1  UNL1        0.1551
      5 N          -0.2841   59.8037   75.3700 N.am    1  UNL1       -0.2627
      6 C          -1.0230   59.2928   76.5345 C.3     1  UNL1        0.1536
      7 C          -0.4654   57.9049   76.8882 C.3     1  UNL1        0.1302
      8 C          -0.9367   60.2668   74.2854 C.2     1  UNL1        0.2497
      9 O          -2.1522   60.3346   74.2894 O.2     1  UNL1       -0.2699
     10 H           1.1698   58.7237   77.7633 H       1  UNL1        0.2071
     11 C          -2.4872   59.1810   76.1959 C.ar    1  UNL1        0.0015
     12 C          -3.3608   60.1862   76.5661 C.ar    1  UNL1       -0.0025
     13 C          -4.7031   60.0862   76.2509 C.ar    1  UNL1       -0.0003
     14 C          -5.1736   58.9756   75.5756 C.ar    1  UNL1       -0.0000
     15 C          -4.3007   57.9678   75.2101 C.ar    1  UNL1       -0.0003
     16 C          -2.9576   58.0706   75.5202 C.ar    1  UNL1       -0.0025
     17 C          -0.1849   60.6933   73.1068 C.2     1  UNL1        0.0596
     18 C          -0.6908   61.6419   72.2902 C.2     1  UNL1        0.0272
     19 C           0.0654   62.0707   71.1048 C.ar    1  UNL1        0.1234
     20 C           1.1931   61.4586   70.6004 C.ar    1  UNL1        0.1179
     21 N           1.5647   62.1683   69.5144 N.ar    1  UNL1       -0.2257
     22 N           0.6422   63.2147   69.3766 N.ar    1  UNL1       -0.0635
     23 N          -0.2267   63.1248   70.3218 N.ar    1  UNL1       -0.1287
     24 C           2.7123   61.8966   68.6451 C.3     1  UNL1        0.1556
     25 C           3.5610   63.1367   68.5314 C.ar    1  UNL1        0.0022
     26 C           4.3493   63.5347   69.5950 C.ar    1  UNL1       -0.0023
     27 C           5.1318   64.6693   69.4888 C.ar    1  UNL1       -0.0003
     28 C           5.1176   65.4121   68.3230 C.ar    1  UNL1       -0.0000
     29 C           4.3249   65.0173   67.2615 C.ar    1  UNL1       -0.0003
     30 C           3.5468   63.8795   67.3657 C.ar    1  UNL1       -0.0023
@<TRIPOS>UNITY_ATOM_ATTR
2 1
charge 1
@<TRIPOS>BOND
     1     1     2    1
     2     2     7    1
     3     2     3    1
     4     3     4    1
     5     4     5    1
     6     5     6    1
     7     5     8   am
     8     6     7    1
     9     6    11    1
    10    11    16   ar
    11    11    12   ar
    12    12    13   ar
    13    13    14   ar
    14    14    15   ar
    15    15    16   ar
    16     8     9    2
    17     8    17    1
    18    17    18    2
    19    18    19    1
    20    19    23   ar
    21    19    20   ar
    22    20    21   ar
    23    21    22   ar
    24    21    24    1
    25    22    23   ar
    26    24    25    1
    27    25    30   ar
    28    25    26   ar
    29    26    27   ar
    30    27    28   ar
    31    28    29   ar
    32    29    30   ar
    33     2    10    1
#	Name:			ZINC30040342
#	Creating user name:	trannguyen
#	Creation time:		Thu Dec  1 16:45:04 2022


#	Modifying user name:	trannguyen
#	Modification time:	Thu Dec  1 16:45:04 2022

@<TRIPOS>MOLECULE
ZINC30040342
 28 30 0 0 0
SMALL
GASTEIGER

@<TRIPOS>ATOM
      1 C           4.1707   64.2453   68.7689 C.2     1  UNL1        0.2824
      2 O           5.0846   64.3971   69.5549 O.2     1  UNL1       -0.2668
      3 N           4.1281   64.9740   67.6359 N.am    1  UNL1       -0.2311
      4 H           3.3874   64.8511   66.9991 H       1  UNL1        0.1731
      5 C           1.5817   62.0213   70.0418 C.ar    1  UNL1        0.1792
      6 C           2.4894   63.0079   70.3117 C.ar    1  UNL1        0.0673
      7 C           3.1015   63.2580   69.0562 C.ar    1  UNL1        0.1775
      8 N           2.5337   62.4428   68.2009 N.ar    1  UNL1       -0.0723
      9 O           1.6966   61.7496   68.7299 O.2     1  UNL1       -0.3532
     10 C          -1.3455   61.4360   72.3204 C.ar    1  UNL1        0.0002
     11 C          -1.0632   60.1704   72.8044 C.ar    1  UNL1        0.0023
     12 C           0.0764   59.5040   72.3932 C.ar    1  UNL1        0.0297
     13 C           0.9419   60.0994   71.4944 C.ar    1  UNL1        0.1431
     14 C           0.6616   61.3772   71.0025 C.ar    1  UNL1        0.0647
     15 C          -0.4911   62.0424   71.4233 C.ar    1  UNL1        0.0054
     16 F           2.0551   59.4477   71.0925 F       1  UNL1       -0.2041
     17 N           5.1380   65.9065   67.3644 N.pl3   1  UNL1       -0.2630
     18 H           6.0214   65.8129   67.7887 H       1  UNL1        0.1700
     19 C           4.8913   66.9690   66.4919 C.ar    1  UNL1        0.0650
     20 C           5.5710   67.0493   65.2830 C.ar    1  UNL1        0.0157
     21 C           5.3215   68.0987   64.4209 C.ar    1  UNL1        0.0013
     22 C           4.4032   69.0743   64.7640 C.ar    1  UNL1        0.0000
     23 C           3.7287   69.0001   65.9687 C.ar    1  UNL1        0.0051
     24 C           3.9700   67.9506   66.8336 C.ar    1  UNL1        0.0859
     25 C           3.2348   67.8708   68.1467 C.3     1  UNL1        0.4198
     26 F           2.8452   69.1551   68.5417 F       1  UNL1       -0.1658
     27 F           2.1011   67.0646   67.9982 F       1  UNL1       -0.1658
     28 F           4.0755   67.3189   69.1191 F       1  UNL1       -0.1658
@<TRIPOS>BOND
     1    10    15   ar
     2    10    11   ar
     3    11    12   ar
     4    12    13   ar
     5    13    14   ar
     6    13    16    1
     7    14    15   ar
     8    14     5    1
     9     5     9   ar
    10     5     6   ar
    11     6     7   ar
    12     7     8   ar
    13     7     1    1
    14     8     9   ar
    15     1     2    2
    16     1     3   am
    17     3    17    1
    18    17    19    1
    19    19    24   ar
    20    19    20   ar
    21    20    21   ar
    22    21    22   ar
    23    22    23   ar
    24    23    24   ar
    25    24    25    1
    26    25    26    1
    27    25    27    1
    28    25    28    1
    29     3     4    1
    30    17    18    1
#	Name:			ZINC30060926
#	Creating user name:	trannguyen
#	Creation time:		Thu Dec  1 16:45:04 2022


#	Modifying user name:	trannguyen
#	Modification time:	Thu Dec  1 16:45:04 2022

@<TRIPOS>MOLECULE
ZINC30060926
 29 31 0 0 0
SMALL
GASTEIGER

@<TRIPOS>ATOM
      1 C           1.9215   61.7179   68.9527 C.2     1  UNL1        0.0058
      2 C           2.9349   62.6058   69.0646 C.2     1  UNL1        0.0592
      3 C           2.1762   57.5408   71.8646 C.3     1  UNL1        0.0500
      4 C           1.8070   58.8867   71.2960 C.ar    1  UNL1        0.0371
      5 C           2.3433   59.4413   70.1950 C.ar    1  UNL1        0.0138
      6 C           1.6816   60.7400   70.0205 C.ar    1  UNL1        0.0129
      7 C           0.7890   60.8542   71.0674 C.ar    1  UNL1        0.0370
      8 N           0.8753   59.7367   71.8167 N.ar    1  UNL1       -0.3358
      9 C          -0.1275   62.0226   71.3244 C.3     1  UNL1        0.0500
     10 C           0.0814   59.4725   73.0192 C.3     1  UNL1        0.0849
     11 C          -1.3084   60.0918   72.8591 C.3     1  UNL1        0.0225
     12 C          -2.1375   59.8159   74.1151 C.3     1  UNL1        0.0019
     13 C          -1.4418   60.4314   75.3308 C.3     1  UNL1        0.0001
     14 C          -0.0520   59.8119   75.4909 C.3     1  UNL1        0.0019
     15 C           0.7771   60.0880   74.2350 C.3     1  UNL1        0.0225
     16 C           3.1666   63.5501   68.0337 C.2     1  UNL1        0.2615
     17 O           3.4841   63.1710   66.9211 O.2     1  UNL1       -0.2686
     18 N           3.0356   64.8677   68.2849 N.am    1  UNL1       -0.2301
     19 H           2.7790   65.1743   69.1846 H       1  UNL1        0.1731
     20 N           3.2647   65.8013   67.2657 N.am    1  UNL1       -0.2300
     21 C           4.4723   66.3882   67.1485 C.2     1  UNL1        0.2641
     22 O           5.3630   66.1076   67.9274 O.2     1  UNL1       -0.2685
     23 H           2.5435   66.0285   66.6352 H       1  UNL1        0.1731
     24 C           4.7133   67.3703   66.0763 C.ar    1  UNL1        0.0882
     25 C           5.7091   67.2825   64.9982 C.ar    1  UNL1        0.0479
     26 C           5.5582   68.3964   64.2654 C.ar    1  UNL1        0.1793
     27 O           4.5813   69.1455   64.7999 O.2     1  UNL1       -0.4545
     28 C           4.0632   68.5535   65.8803 C.ar    1  UNL1        0.1278
     29 C           2.9502   69.1001   66.7366 C.3     1  UNL1        0.0726
@<TRIPOS>BOND
     1     3     4    1
     2     4     8   ar
     3     4     5   ar
     4     5     6   ar
     5     6     7   ar
     6     6     1    1
     7     7     8   ar
     8     7     9    1
     9     8    10    1
    10    10    15    1
    11    10    11    1
    12    11    12    1
    13    12    13    1
    14    13    14    1
    15    14    15    1
    16     1     2    2
    17     2    16    1
    18    16    17    2
    19    16    18   am
    20    18    20    1
    21    20    21   am
    22    21    22    2
    23    21    24    1
    24    24    28   ar
    25    24    25   ar
    26    25    26   ar
    27    26    27   ar
    28    27    28   ar
    29    28    29    1
    30    18    19    1
    31    20    23    1
#	Name:			ZINC30399788
#	Creating user name:	trannguyen
#	Creation time:		Thu Dec  1 16:45:04 2022


#	Modifying user name:	trannguyen
#	Modification time:	Thu Dec  1 16:45:04 2022

@<TRIPOS>MOLECULE
ZINC30399788
 31 33 0 0 0
SMALL
GASTEIGER

@<TRIPOS>ATOM
      1 C           0.1540   60.4086   73.1605 C.3     1  UNL1        0.2930
      2 N           0.0083   59.0827   75.2436 N.am    1  UNL1       -0.2757
      3 C           0.6665   60.0103   74.5206 C.2     1  UNL1        0.2711
      4 O           1.6684   60.5281   74.9667 O.2     1  UNL1       -0.2707
      5 H          -0.8049   58.6623   74.8814 H       1  UNL1        0.1554
      6 C           2.4871   56.3677   78.7247 C.3     1  UNL1        0.0315
      7 C           1.6214   57.5003   78.2359 C.ar    1  UNL1       -0.0119
      8 C           1.1323   58.4242   79.0819 C.ar    1  UNL1        0.0051
      9 S           0.2068   59.5087   78.0149 S.2     1  UNL1       -0.0767
     10 C           0.4764   58.7205   76.4970 C.ar    1  UNL1        0.0864
     11 C           1.2817   57.6394   76.8394 C.ar    1  UNL1        0.0915
     12 C           1.3257   58.5217   80.5733 C.3     1  UNL1        0.0379
     13 C           1.7607   56.6889   75.8337 C.2     1  UNL1        0.3427
     14 O           1.2861   55.5702   75.7794 O.2     1  UNL1       -0.2448
     15 O           2.7280   57.0538   74.9674 O.3     1  UNL1       -0.4413
     16 C           3.9864   57.5031   75.5354 C.3     1  UNL1        0.2560
     17 O           0.9967   61.4573   72.6139 O.3     1  UNL1       -0.4353
     18 C           1.6172   61.1971   71.4462 C.2     1  UNL1        0.3428
     19 O           1.7452   60.0492   71.0688 O.2     1  UNL1       -0.2448
     20 C           2.1407   62.3052   70.6270 C.ar    1  UNL1        0.0892
     21 C           3.5231   62.5366   70.5436 C.ar    1  UNL1        0.0092
     22 C           3.9665   63.5727   69.7678 C.ar    1  UNL1        0.0198
     23 C           3.0363   64.3710   69.0938 C.ar    1  UNL1        0.0869
     24 N           1.7313   64.1315   69.1957 N.ar    1  UNL1       -0.2489
     25 C           1.2673   63.1426   69.9276 C.ar    1  UNL1        0.0656
     26 C          -0.2192   62.9098   70.0128 C.3     1  UNL1        0.0523
     27 C           3.5075   65.4918   68.2608 C.ar    1  UNL1        0.0471
     28 C           4.5762   65.5409   67.4016 C.ar    1  UNL1        0.0085
     29 C           4.8223   66.7090   66.7194 C.ar    1  UNL1        0.0075
     30 C           4.0100   67.7801   66.9242 C.ar    1  UNL1        0.0355
     31 S           2.8409   67.1415   68.1127 S.2     1  UNL1       -0.0849
@<TRIPOS>BOND
     1     6     7    1
     2     7    11   ar
     3     7     8   ar
     4     8     9   ar
     5     8    12    1
     6     9    10   ar
     7    10    11   ar
     8    10     2    1
     9    11    13    1
    10    13    14    2
    11    13    15    1
    12    15    16    1
    13     2     3   am
    14     3     4    2
    15     3     1    1
    16     1    17    1
    17    17    18    1
    18    18    19    2
    19    18    20    1
    20    20    25   ar
    21    20    21   ar
    22    21    22   ar
    23    22    23   ar
    24    23    24   ar
    25    23    27    1
    26    24    25   ar
    27    25    26    1
    28    27    31   ar
    29    27    28   ar
    30    28    29   ar
    31    29    30   ar
    32    30    31   ar
    33     2     5    1
#	Name:			ZINC30512105
#	Creating user name:	trannguyen
#	Creation time:		Thu Dec  1 16:45:04 2022


#	Modifying user name:	trannguyen
#	Modification time:	Thu Dec  1 16:45:04 2022

@<TRIPOS>MOLECULE
ZINC30512105
 40 44 0 0 0
SMALL
GASTEIGER

@<TRIPOS>ATOM
      1 C          -4.6717   58.9887   74.7480 C.3     1  UNL1        0.1300
      2 C          -3.8245   58.0138   75.5243 C.ar    1  UNL1        0.0341
      3 C          -4.2649   56.7179   75.7196 C.ar    1  UNL1        0.0013
      4 C          -3.4858   55.8224   76.4275 C.ar    1  UNL1       -0.0001
      5 C          -2.2706   56.2254   76.9494 C.ar    1  UNL1       -0.0001
      6 C          -1.8326   57.5224   76.7587 C.ar    1  UNL1        0.0013
      7 C          -2.6097   58.4167   76.0460 C.ar    1  UNL1        0.0342
      8 C          -2.1324   59.8309   75.8385 C.3     1  UNL1        0.1328
      9 N          -1.4526   59.9328   74.5403 N.4     1  UNL1        0.2819
     10 C           0.0051   60.0003   74.7130 C.3     1  UNL1        0.1276
     11 C           0.6784   60.0253   73.3387 C.3     1  UNL1        0.1526
     12 N           0.1872   61.1816   72.5763 N.pl3   1  UNL1       -0.2973
     13 C          -1.2706   61.1140   72.4036 C.3     1  UNL1        0.1526
     14 C          -1.9439   61.0891   73.7779 C.3     1  UNL1        0.1276
     15 H          -1.6678   59.0901   74.0075 H       1  UNL1        0.2072
     16 C           0.8335   61.2784   71.3419 C.ar    1  UNL1        0.0481
     17 C           0.6514   62.4030   70.5471 C.ar    1  UNL1        0.0145
     18 C           1.2957   62.4976   69.3293 C.ar    1  UNL1        0.0013
     19 C           2.1132   61.4698   68.8961 C.ar    1  UNL1        0.0001
     20 C           2.2926   60.3466   69.6825 C.ar    1  UNL1        0.0013
     21 C           1.6554   60.2478   70.9037 C.ar    1  UNL1        0.0145
     22 N          -5.9825   59.1237   75.3975 N.4     1  UNL1        0.2612
     23 H          -6.6550   59.4830   74.7201 H       1  UNL1        0.2042
     24 H          -6.2727   58.2068   75.7374 H       1  UNL1        0.2042
     25 C          -5.9117   60.0452   76.5393 C.3     1  UNL1        0.1304
     26 C         -11.9423   62.8107   76.0919 C.3     1  UNL1        0.0308
     27 C         -10.4802   62.4456   76.0964 C.ar    1  UNL1       -0.0228
     28 C          -9.5426   63.3773   75.7013 C.ar    1  UNL1        0.0330
     29 C          -8.1944   63.0442   75.7042 C.ar    1  UNL1        0.1482
     30 C          -7.8036   61.7565   76.1117 C.ar    1  UNL1        0.0361
     31 C          -8.7689   60.8287   76.5137 C.ar    1  UNL1       -0.0017
     32 C         -10.0908   61.1763   76.4982 C.ar    1  UNL1       -0.0263
     33 C          -6.3783   61.4126   76.1110 C.ar    1  UNL1        0.0419
     34 C          -5.4909   62.3595   75.7143 C.ar    1  UNL1        0.0838
     35 C          -5.9540   63.6330   75.3182 C.ar    1  UNL1        0.3458
     36 O          -5.1473   64.4739   74.9644 O.2     1  UNL1       -0.2445
     37 O          -7.2602   63.9405   75.3210 O.2     1  UNL1       -0.4211
     38 C         -11.1325   60.1750   76.9266 C.3     1  UNL1        0.0220
     39 C         -10.8669   59.7497   78.3721 C.3     1  UNL1        0.0047
     40 C         -11.0670   58.9488   76.0139 C.3     1  UNL1        0.0047
@<TRIPOS>UNITY_ATOM_ATTR
9 1
charge 1
22 1
charge 1
@<TRIPOS>BOND
     1    26    27    1
     2    27    32   ar
     3    27    28   ar
     4    28    29   ar
     5    29    37   ar
     6    29    30   ar
     7    30    31   ar
     8    30    33   ar
     9    31    32   ar
    10    32    38    1
    11    38    39    1
    12    38    40    1
    13    33    34   ar
    14    33    25    1
    15    34    35   ar
    16    35    36    2
    17    35    37   ar
    18    25    22    1
    19    22     1    1
    20     1     2    1
    21     2     7   ar
    22     2     3   ar
    23     3     4   ar
    24     4     5   ar
    25     5     6   ar
    26     6     7   ar
    27     7     8    1
    28     8     9    1
    29     9    14    1
    30     9    10    1
    31    10    11    1
    32    11    12    1
    33    12    13    1
    34    12    16    1
    35    13    14    1
    36    16    21   ar
    37    16    17   ar
    38    17    18   ar
    39    18    19   ar
    40    19    20   ar
    41    20    21   ar
    42    22    23    1
    43    22    24    1
    44     9    15    1
#	Name:			ZINC30512577
#	Creating user name:	trannguyen
#	Creation time:		Thu Dec  1 16:45:04 2022


#	Modifying user name:	trannguyen
#	Modification time:	Thu Dec  1 16:45:04 2022

@<TRIPOS>MOLECULE
ZINC30512577
 40 43 0 0 0
SMALL
GASTEIGER

@<TRIPOS>ATOM
      1 C          -2.5412   60.7275   73.5632 C.3     1  UNL1        0.1299
      2 C          -1.2677   60.2877   74.2383 C.ar    1  UNL1        0.0341
      3 C          -1.2377   60.1097   75.6090 C.ar    1  UNL1        0.0013
      4 C          -0.0710   59.7018   76.2276 C.ar    1  UNL1       -0.0001
      5 C           1.0689   59.4815   75.4768 C.ar    1  UNL1       -0.0001
      6 C           1.0404   59.6644   74.1071 C.ar    1  UNL1        0.0013
      7 C          -0.1281   60.0676   73.4877 C.ar    1  UNL1        0.0342
      8 C          -0.1591   60.2674   71.9944 C.3     1  UNL1        0.1328
      9 N           0.7860   61.3288   71.6227 N.4     1  UNL1        0.2819
     10 C           0.0919   62.4463   70.9676 C.3     1  UNL1        0.1276
     11 C           1.0958   63.5621   70.6688 C.3     1  UNL1        0.1526
     12 N           2.1676   63.0366   69.8116 N.pl3   1  UNL1       -0.2973
     13 C           2.8617   61.9192   70.4667 C.3     1  UNL1        0.1526
     14 C           1.8577   60.8033   70.7655 C.3     1  UNL1        0.1276
     15 H           1.2125   61.6819   72.4793 H       1  UNL1        0.2072
     16 C           3.0662   64.0458   69.4581 C.ar    1  UNL1        0.0481
     17 C           2.5977   65.3126   69.1334 C.ar    1  UNL1        0.0145
     18 C           3.4891   66.3095   68.7890 C.ar    1  UNL1        0.0013
     19 C           4.8461   66.0450   68.7570 C.ar    1  UNL1        0.0001
     20 C           5.3156   64.7836   69.0745 C.ar    1  UNL1        0.0013
     21 C           4.4299   63.7835   69.4249 C.ar    1  UNL1        0.0145
     22 N          -3.2219   61.7225   74.4027 N.4     1  UNL1        0.2601
     23 H          -2.5713   62.0627   75.1107 H       1  UNL1        0.2042
     24 H          -3.5358   62.4893   73.8079 H       1  UNL1        0.2042
     25 C          -5.3313   60.5394   74.0176 C.3     1  UNL1        0.0710
     26 C          -4.3932   61.1367   75.0683 C.3     1  UNL1        0.1303
     27 C          -5.1202   62.2077   75.8401 C.2     1  UNL1        0.2756
     28 O          -5.8230   61.9055   76.7812 O.2     1  UNL1       -0.2686
     29 N          -4.9893   63.5011   75.4845 N.am    1  UNL1       -0.2793
     30 H          -4.5101   63.7383   74.6578 H       1  UNL1        0.1550
     31 C          -5.5345   64.5068   76.2903 C.ar    1  UNL1        0.0543
     32 C          -5.0141   64.7429   77.5561 C.ar    1  UNL1        0.0146
     33 C          -5.5512   65.7394   78.3471 C.ar    1  UNL1        0.0013
     34 C          -6.6128   66.4951   77.8838 C.ar    1  UNL1        0.0000
     35 C          -7.1366   66.2590   76.6262 C.ar    1  UNL1        0.0051
     36 C          -6.6007   65.2670   75.8284 C.ar    1  UNL1        0.0848
     37 C          -7.1728   65.0096   74.4581 C.3     1  UNL1        0.4197
     38 F          -6.3126   65.5340   73.4875 F       1  UNL1       -0.1658
     39 F          -7.3120   63.6314   74.2623 F       1  UNL1       -0.1658
     40 F          -8.4251   65.6244   74.3526 F       1  UNL1       -0.1658
@<TRIPOS>UNITY_ATOM_ATTR
9 1
charge 1
22 1
charge 1
@<TRIPOS>BOND
     1    25    26    1
     2    26    27    1
     3    26    22    1
     4    27    28    2
     5    27    29   am
     6    29    31    1
     7    31    36   ar
     8    31    32   ar
     9    32    33   ar
    10    33    34   ar
    11    34    35   ar
    12    35    36   ar
    13    36    37    1
    14    37    38    1
    15    37    39    1
    16    37    40    1
    17    22     1    1
    18     1     2    1
    19     2     7   ar
    20     2     3   ar
    21     3     4   ar
    22     4     5   ar
    23     5     6   ar
    24     6     7   ar
    25     7     8    1
    26     8     9    1
    27     9    14    1
    28     9    10    1
    29    10    11    1
    30    11    12    1
    31    12    13    1
    32    12    16    1
    33    13    14    1
    34    16    21   ar
    35    16    17   ar
    36    17    18   ar
    37    18    19   ar
    38    19    20   ar
    39    20    21   ar
    40    29    30    1
    41    22    23    1
    42    22    24    1
    43     9    15    1
#	Name:			ZINC30515719
#	Creating user name:	trannguyen
#	Creation time:		Thu Dec  1 16:45:04 2022


#	Modifying user name:	trannguyen
#	Modification time:	Thu Dec  1 16:45:04 2022

@<TRIPOS>MOLECULE
ZINC30515719
 21 24 0 0 0
SMALL
GASTEIGER

@<TRIPOS>ATOM
      1 C           0.3813   60.8486   72.8237 C.ar    1  UNL1        0.1450
      2 N           1.0606   60.6327   73.9444 N.ar    1  UNL1       -0.2337
      3 C           0.4807   60.1146   75.0017 C.ar    1  UNL1        0.1212
      4 C          -0.8408   59.7987   74.9638 C.ar    1  UNL1        0.0575
      5 S          -1.2484   60.2803   73.2904 S.2     1  UNL1       -0.0631
      6 C           3.1836   61.6860   68.7519 C.3     1  UNL1        0.0725
      7 C           2.0668   61.7810   69.7593 C.ar    1  UNL1        0.1234
      8 C           0.9999   62.6009   69.6744 C.ar    1  UNL1        0.0362
      9 C           0.2092   62.3698   70.8159 C.ar    1  UNL1        0.0424
     10 C           0.8440   61.4095   71.5449 C.ar    1  UNL1        0.1685
     11 O           1.9726   61.0671   70.8927 O.2     1  UNL1       -0.4557
     12 C           1.2776   59.8758   76.2583 C.3     1  UNL1        0.1566
     13 N           1.8961   58.5446   76.2003 N.4     1  UNL1        0.3151
     14 C           2.1658   58.1938   74.8000 C.3     1  UNL1        0.1713
     15 C           2.8168   56.8095   74.7366 C.3     1  UNL1        0.1678
     16 N           2.9549   56.2868   76.1073 N.4     1  UNL1        0.2895
     17 C           1.6280   56.1698   76.7365 C.3     1  UNL1        0.1678
     18 C           0.9831   57.5576   76.7908 C.3     1  UNL1        0.1713
     19 C           3.8101   57.1862   76.9017 C.3     1  UNL1        0.1678
     20 C           3.1589   58.5616   76.9500 C.3     1  UNL1        0.1713
     21 H           3.3866   55.3634   76.0698 H       1  UNL1        0.2074
@<TRIPOS>UNITY_ATOM_ATTR
13 1
charge 1
16 1
charge 1
@<TRIPOS>BOND
     1     6     7    1
     2     7    11   ar
     3     7     8   ar
     4     8     9   ar
     5     9    10   ar
     6    10    11   ar
     7    10     1    1
     8     1     5   ar
     9     1     2   ar
    10     2     3   ar
    11     3     4   ar
    12     3    12    1
    13     4     5   ar
    14    12    13    1
    15    13    18    1
    16    13    20    1
    17    13    14    1
    18    14    15    1
    19    15    16    1
    20    16    17    1
    21    16    19    1
    22    17    18    1
    23    19    20    1
    24    16    21    1
#	Name:			ZINC30536141
#	Creating user name:	trannguyen
#	Creation time:		Thu Dec  1 16:45:04 2022


#	Modifying user name:	trannguyen
#	Modification time:	Thu Dec  1 16:45:04 2022

@<TRIPOS>MOLECULE
ZINC30536141
 35 38 0 0 0
SMALL
GASTEIGER

@<TRIPOS>ATOM
      1 C           3.1688   62.9086   69.4596 C.3     1  UNL1        0.1955
      2 O           2.5123   62.9086   68.1904 O.3     1  UNL1       -0.3769
      3 H           2.1049   63.7754   68.0371 H       1  UNL1        0.2107
      4 C           4.2509   63.9901   69.4742 C.3     1  UNL1        0.1346
      5 N           4.1103   64.8393   68.2838 N.4     1  UNL1        0.2552
      6 H           4.9334   64.7236   67.6924 H       1  UNL1        0.2037
      7 H           3.2677   64.5588   67.7821 H       1  UNL1        0.2037
      8 C           2.6419   66.4771   69.3603 C.3     1  UNL1        0.0660
      9 C           3.9831   66.2540   68.6585 C.3     1  UNL1        0.0756
     10 C           4.0502   67.1097   67.4198 C.ar    1  UNL1        0.0297
     11 C           3.1803   68.1736   67.2684 C.ar    1  UNL1        0.0045
     12 C           3.2378   68.9611   66.1338 C.ar    1  UNL1        0.0401
     13 C           4.1682   68.6857   65.1449 C.ar    1  UNL1        0.1764
     14 C           5.0448   67.6143   65.2976 C.ar    1  UNL1        0.1763
     15 C           4.9853   66.8327   66.4400 C.ar    1  UNL1        0.0414
     16 O           5.8544   67.5531   64.2003 O.3     1  UNL1       -0.4346
     17 C           5.7386   68.8401   63.5649 C.3     1  UNL1        0.4294
     18 O           4.4288   69.2959   63.9519 O.3     1  UNL1       -0.4346
     19 C           2.1472   63.1943   70.5622 C.3     1  UNL1        0.1782
     20 O           2.0750   62.0743   71.4467 O.3     1  UNL1       -0.3446
     21 C           1.0982   61.1006   71.0729 C.3     1  UNL1        0.1598
     22 C           0.1077   60.9262   72.1953 C.ar    1  UNL1        0.0089
     23 C           0.5208   60.4017   73.4058 C.ar    1  UNL1        0.0007
     24 C          -0.3867   60.2418   74.4358 C.ar    1  UNL1        0.0294
     25 C          -1.7098   60.6071   74.2550 C.ar    1  UNL1        0.1401
     26 C          -2.1224   61.1324   73.0422 C.ar    1  UNL1        0.0294
     27 C          -1.2133   61.2914   72.0136 C.ar    1  UNL1        0.0007
     28 F          -2.5978   60.4508   75.2612 F       1  UNL1       -0.2042
     29 C           1.7803   59.7855   70.7962 C.ar    1  UNL1        0.0089
     30 C           2.7011   59.6874   69.7699 C.ar    1  UNL1        0.0007
     31 C           3.3314   58.4835   69.5189 C.ar    1  UNL1        0.0294
     32 C           3.0316   57.3722   70.2885 C.ar    1  UNL1        0.1401
     33 C           2.1049   57.4701   71.3125 C.ar    1  UNL1        0.0294
     34 C           1.4802   58.6766   71.5654 C.ar    1  UNL1        0.0007
     35 F           3.6433   56.1933   70.0408 F       1  UNL1       -0.2042
@<TRIPOS>UNITY_ATOM_ATTR
5 1
charge 1
@<TRIPOS>BOND
     1     8     9    1
     2     9    10    1
     3     9     5    1
     4    10    15   ar
     5    10    11   ar
     6    11    12   ar
     7    12    13   ar
     8    13    18    1
     9    13    14   ar
    10    14    15   ar
    11    14    16    1
    12    16    17    1
    13    17    18    1
    14     5     4    1
    15     4     1    1
    16     1    19    1
    17     1     2    1
    18    19    20    1
    19    20    21    1
    20    21    22    1
    21    21    29    1
    22    22    27   ar
    23    22    23   ar
    24    23    24   ar
    25    24    25   ar
    26    25    26   ar
    27    25    28    1
    28    26    27   ar
    29    29    34   ar
    30    29    30   ar
    31    30    31   ar
    32    31    32   ar
    33    32    33   ar
    34    32    35    1
    35    33    34   ar
    36     5     6    1
    37     5     7    1
    38     2     3    1
#	Name:			ZINC30670063
#	Creating user name:	trannguyen
#	Creation time:		Thu Dec  1 16:45:04 2022


#	Modifying user name:	trannguyen
#	Modification time:	Thu Dec  1 16:45:04 2022

@<TRIPOS>MOLECULE
ZINC30670063
 40 44 0 0 0
SMALL
GASTEIGER

@<TRIPOS>ATOM
      1 N           4.1459   63.2491   69.7276 N.ar    1  UNL1       -0.2451
      2 C           4.0793   62.0631   69.0853 C.ar    1  UNL1        0.0984
      3 C           2.9698   61.4203   69.5105 C.ar    1  UNL1        0.0706
      4 C           2.3322   62.2419   70.4603 C.ar    1  UNL1        0.1039
      5 N           3.0441   63.3417   70.5876 N.ar    1  UNL1       -0.1691
      6 C           1.0794   61.9235   71.1896 C.ar    1  UNL1        0.0193
      7 C          -0.1459   62.3768   70.7054 C.ar    1  UNL1        0.0012
      8 C          -1.3084   62.0734   71.3847 C.ar    1  UNL1       -0.0042
      9 C          -1.2574   61.3299   72.5501 C.ar    1  UNL1       -0.0218
     10 C          -0.0433   60.8822   73.0382 C.ar    1  UNL1       -0.0042
     11 C           1.1248   61.1750   72.3638 C.ar    1  UNL1        0.0012
     12 C          -2.5295   61.0071   73.2908 C.3     1  UNL1        0.0310
     13 C           5.1920   64.2607   69.5587 C.3     1  UNL1        0.1538
     14 C           3.1100   68.6905   66.4870 C.3     1  UNL1        0.0310
     15 C           3.6526   67.5350   67.2878 C.ar    1  UNL1       -0.0219
     16 C           4.7310   66.8116   66.8139 C.ar    1  UNL1       -0.0045
     17 C           5.2291   65.7519   67.5487 C.ar    1  UNL1       -0.0027
     18 C           4.6490   65.4158   68.7576 C.ar    1  UNL1        0.0021
     19 C           3.5674   66.1360   69.2291 C.ar    1  UNL1       -0.0027
     20 C           3.0717   67.1981   68.4962 C.ar    1  UNL1       -0.0045
     21 C           2.5011   60.0627   69.0543 C.3     1  UNL1        0.1329
     22 N           3.2525   59.0204   69.7666 N.4     1  UNL1        0.2580
     23 H           3.7319   59.4402   70.5629 H       1  UNL1        0.2039
     24 H           3.9258   58.6070   69.1215 H       1  UNL1        0.2039
     25 C           2.3557   57.9617   70.2492 C.3     1  UNL1        0.1089
     26 C           1.8906   58.2949   71.6682 C.3     1  UNL1        0.1215
     27 C           2.2986   57.1659   72.6168 C.3     1  UNL1        0.1117
     28 N           2.8276   57.7393   73.8615 N.4     1  UNL1        0.2786
     29 C           3.5990   56.7409   74.6151 C.3     1  UNL1        0.1273
     30 C           4.1978   57.3973   75.8614 C.3     1  UNL1        0.1548
     31 N           3.1165   57.9550   76.6855 N.pl3   1  UNL1       -0.2668
     32 C           2.3450   58.9533   75.9321 C.3     1  UNL1        0.1548
     33 C           1.7463   58.2969   74.6858 C.3     1  UNL1        0.1273
     34 H           3.4579   58.5014   73.6117 H       1  UNL1        0.2068
     35 C           3.6149   58.4952   77.8584 C.ar    1  UNL1        0.2205
     36 N           4.1272   57.6881   78.7756 N.ar    1  UNL1       -0.2121
     37 C           4.6168   58.1725   79.9049 C.ar    1  UNL1        0.1034
     38 C           4.5787   59.5401   80.1268 C.ar    1  UNL1        0.0414
     39 C           4.0307   60.3551   79.1487 C.ar    1  UNL1        0.1034
     40 N           3.5632   59.8067   78.0394 N.ar    1  UNL1       -0.2121
@<TRIPOS>UNITY_ATOM_ATTR
22 1
charge 1
28 1
charge 1
@<TRIPOS>BOND
     1    14    15    1
     2    15    20   ar
     3    15    16   ar
     4    16    17   ar
     5    17    18   ar
     6    18    19   ar
     7    18    13    1
     8    19    20   ar
     9    13     1    1
    10     1     5   ar
    11     1     2   ar
    12     2     3   ar
    13     3     4   ar
    14     3    21    1
    15     4     5   ar
    16     4     6    1
    17     6    11   ar
    18     6     7   ar
    19     7     8   ar
    20     8     9   ar
    21     9    10   ar
    22     9    12    1
    23    10    11   ar
    24    21    22    1
    25    22    25    1
    26    25    26    1
    27    26    27    1
    28    27    28    1
    29    28    33    1
    30    28    29    1
    31    29    30    1
    32    30    31    1
    33    31    32    1
    34    31    35    1
    35    32    33    1
    36    35    40   ar
    37    35    36   ar
    38    36    37   ar
    39    37    38   ar
    40    38    39   ar
    41    39    40   ar
    42    22    23    1
    43    22    24    1
    44    28    34    1
#	Name:			ZINC30678639
#	Creating user name:	trannguyen
#	Creation time:		Thu Dec  1 16:45:04 2022


#	Modifying user name:	trannguyen
#	Modification time:	Thu Dec  1 16:45:04 2022

@<TRIPOS>MOLECULE
ZINC30678639
 10 9 0 0 0
SMALL
GASTEIGER

@<TRIPOS>ATOM
      1 C           3.2976   65.1714   67.7926 C.2     1  UNL1        0.0792
      2 C           4.0011   64.2546   68.4861 C.2     1  UNL1        0.1411
      3 CL          5.3466   64.7511   69.4644 Cl      1  UNL1       -0.0745
      4 C           3.6432   62.8872   68.4166 C.2     1  UNL1        0.2977
      5 N           2.8163   62.3862   69.2871 N.2     1  UNL1       -0.1715
      6 C           2.4651   63.1493   70.4873 C.3     1  UNL1        0.4028
      7 C           2.2364   61.0590   69.0671 C.3     1  UNL1        0.4028
      8 C           3.1699   67.4557   68.6900 C.3     1  UNL1        0.1123
      9 N           3.7227   66.4755   67.7519 N.pl3   1  UNL1       -0.3023
     10 C           4.7292   66.8875   66.7705 C.3     1  UNL1        0.1123
@<TRIPOS>UNITY_ATOM_ATTR
5 1
charge 1
@<TRIPOS>BOND
     1     8     9    1
     2     9    10    1
     3     9     1    1
     4     1     2    2
     5     2     4    1
     6     2     3    1
     7     4     5    2
     8     5     6    1
     9     5     7    1
#	Name:			ZINC30883689
#	Creating user name:	trannguyen
#	Creation time:		Thu Dec  1 16:45:04 2022


#	Modifying user name:	trannguyen
#	Modification time:	Thu Dec  1 16:45:04 2022

@<TRIPOS>MOLECULE
ZINC30883689
 28 30 0 0 0
SMALL
GASTEIGER

@<TRIPOS>ATOM
      1 C           0.6766   59.5703   75.2770 C.ar    1  UNL1        0.0676
      2 C          -0.2655   59.5220   76.2843 C.ar    1  UNL1        0.0880
      3 C          -1.4464   60.1138   75.7806 C.ar    1  UNL1        0.1262
      4 N          -1.2172   60.4942   74.5541 N.ar    1  UNL1       -0.1623
      5 N           0.0988   60.1612   74.2143 N.ar    1  UNL1       -0.2161
      6 C           0.7117   60.4063   72.9818 C.ar    1  UNL1        0.1634
      7 C           0.9395   59.3529   72.1050 C.ar    1  UNL1        0.0388
      8 C           1.5520   59.6083   70.8902 C.ar    1  UNL1        0.0086
      9 C           1.9065   60.9162   70.5898 C.ar    1  UNL1        0.0906
     10 C           1.6495   61.9143   71.5095 C.ar    1  UNL1        0.1044
     11 N           1.0689   61.6393   72.6613 N.ar    1  UNL1       -0.2251
     12 C           2.5706   61.2428   69.2770 C.3     1  UNL1        0.4200
     13 F           3.5247   62.2467   69.4741 F       1  UNL1       -0.1658
     14 F           3.1961   60.0974   68.7731 F       1  UNL1       -0.1658
     15 F           1.6073   61.6874   68.3651 F       1  UNL1       -0.1658
     16 C          -0.0760   58.9580   77.6332 C.2     1  UNL1        0.2521
     17 O          -0.1575   57.7572   77.8071 O.2     1  UNL1       -0.2698
     18 N           0.1874   59.7732   78.6735 N.am    1  UNL1       -0.2696
     19 C           0.1830   61.2260   78.4851 C.3     1  UNL1        0.1155
     20 C           0.4782   59.2065   79.9929 C.3     1  UNL1        0.1269
     21 C           1.9675   59.0401   80.1510 C.ar    1  UNL1        0.0273
     22 C           2.7345   57.9482   79.9131 C.ar    1  UNL1        0.0044
     23 C           4.0978   58.0269   80.1272 C.ar    1  UNL1        0.0072
     24 C           4.6260   59.1907   80.5790 C.ar    1  UNL1        0.0352
     25 S           3.1786   60.2276   80.7081 S.2     1  UNL1       -0.0891
     26 C           2.7781   59.6348   76.5917 C.3     1  UNL1        0.0063
     27 C           2.0914   59.0568   75.3527 C.3     1  UNL1        0.0406
     28 C           2.0753   57.5296   75.4443 C.3     1  UNL1        0.0063
@<TRIPOS>BOND
     1    26    27    1
     2    27    28    1
     3    27     1    1
     4     1     5   ar
     5     1     2   ar
     6     2     3   ar
     7     2    16    1
     8     3     4   ar
     9     4     5   ar
    10     5     6    1
    11     6    11   ar
    12     6     7   ar
    13     7     8   ar
    14     8     9   ar
    15     9    10   ar
    16     9    12    1
    17    10    11   ar
    18    12    13    1
    19    12    14    1
    20    12    15    1
    21    16    17    2
    22    16    18   am
    23    18    19    1
    24    18    20    1
    25    20    21    1
    26    21    25   ar
    27    21    22   ar
    28    22    23   ar
    29    23    24   ar
    30    24    25   ar
#	Name:			ZINC30914010
#	Creating user name:	trannguyen
#	Creation time:		Thu Dec  1 16:45:04 2022


#	Modifying user name:	trannguyen
#	Modification time:	Thu Dec  1 16:45:04 2022

@<TRIPOS>MOLECULE
ZINC30914010
 38 42 0 0 0
SMALL
GASTEIGER

@<TRIPOS>ATOM
      1 C           0.8731   60.8565   71.1658 C.ar    1  UNL1        0.0342
      2 C           0.0013   61.9160   70.9955 C.ar    1  UNL1        0.0013
      3 C          -1.1732   61.9683   71.7221 C.ar    1  UNL1       -0.0001
      4 C          -1.4764   60.9610   72.6193 C.ar    1  UNL1       -0.0001
      5 C          -0.6075   59.8992   72.7857 C.ar    1  UNL1        0.0013
      6 C           0.5700   59.8496   72.0627 C.ar    1  UNL1        0.0341
      7 C           2.1535   60.7994   70.3731 C.3     1  UNL1        0.1328
      8 N           3.7465   64.3406   68.7093 N.pl3   1  UNL1       -0.2973
      9 C           2.6882   64.4703   69.7205 C.3     1  UNL1        0.1526
     10 C           2.5985   63.1747   70.5304 C.3     1  UNL1        0.1276
     11 N           2.3219   62.0517   69.6238 N.4     1  UNL1        0.2819
     12 C           3.3803   61.9219   68.6126 C.3     1  UNL1        0.1276
     13 C           3.4701   63.2176   67.8028 C.3     1  UNL1        0.1526
     14 H           1.4457   62.2466   69.1394 H       1  UNL1        0.2072
     15 C           4.2249   67.8902   66.5861 C.ar    1  UNL1        0.0001
     16 C           3.2783   67.8097   67.5910 C.ar    1  UNL1        0.0013
     17 C           3.1170   66.6338   68.2970 C.ar    1  UNL1        0.0145
     18 C           3.9068   65.5313   67.9968 C.ar    1  UNL1        0.0481
     19 C           4.8602   65.6172   66.9903 C.ar    1  UNL1        0.0145
     20 C           5.0129   66.7945   66.2847 C.ar    1  UNL1        0.0013
     21 C           1.5200   58.6945   72.2481 C.3     1  UNL1        0.1300
     22 N           1.7256   58.4550   73.6828 N.4     1  UNL1        0.2613
     23 H           0.8186   58.3409   74.1352 H       1  UNL1        0.2042
     24 H           2.2238   59.2528   74.0772 H       1  UNL1        0.2042
     25 C           2.5288   57.2453   73.9047 C.3     1  UNL1        0.1333
     26 C           3.1400   57.2937   75.2814 C.ar    1  UNL1        0.0721
     27 C           4.4661   56.9879   75.6044 C.ar    1  UNL1        0.1231
     28 N           4.6196   57.1461   76.8941 N.ar    1  UNL1       -0.1675
     29 N           3.3941   57.5583   77.4334 N.ar    1  UNL1       -0.2450
     30 C           2.5043   57.6466   76.4227 C.ar    1  UNL1        0.0984
     31 C           3.1273   57.8482   78.8444 C.3     1  UNL1        0.1547
     32 C           4.2399   58.6982   79.4017 C.ar    1  UNL1        0.0127
     33 C           5.2614   58.1122   80.1257 C.ar    1  UNL1       -0.0015
     34 C           6.2816   58.8917   80.6374 C.ar    1  UNL1       -0.0002
     35 C           6.2817   60.2579   80.4247 C.ar    1  UNL1        0.0008
     36 C           5.2613   60.8449   79.7008 C.ar    1  UNL1        0.0111
     37 C           4.2422   60.0642   79.1842 C.ar    1  UNL1        0.0556
     38 CL          2.9639   60.7999   78.2684 Cl      1  UNL1       -0.0825
@<TRIPOS>UNITY_ATOM_ATTR
11 1
charge 1
22 1
charge 1
@<TRIPOS>BOND
     1    15    20   ar
     2    15    16   ar
     3    16    17   ar
     4    17    18   ar
     5    18    19   ar
     6    18     8    1
     7    19    20   ar
     8     8    13    1
     9     8     9    1
    10     9    10    1
    11    10    11    1
    12    11    12    1
    13    11     7    1
    14    12    13    1
    15     7     1    1
    16     1     6   ar
    17     1     2   ar
    18     2     3   ar
    19     3     4   ar
    20     4     5   ar
    21     5     6   ar
    22     6    21    1
    23    21    22    1
    24    22    25    1
    25    25    26    1
    26    26    30   ar
    27    26    27   ar
    28    27    28   ar
    29    28    29   ar
    30    29    30   ar
    31    29    31    1
    32    31    32    1
    33    32    37   ar
    34    32    33   ar
    35    33    34   ar
    36    34    35   ar
    37    35    36   ar
    38    36    37   ar
    39    37    38    1
    40    11    14    1
    41    22    23    1
    42    22    24    1
#	Name:			ZINC30914022
#	Creating user name:	trannguyen
#	Creation time:		Thu Dec  1 16:45:04 2022


#	Modifying user name:	trannguyen
#	Modification time:	Thu Dec  1 16:45:04 2022

@<TRIPOS>MOLECULE
ZINC30914022
 36 40 0 0 0
SMALL
GASTEIGER

@<TRIPOS>ATOM
      1 C           0.5818   59.8080   72.1293 C.ar    1  UNL1        0.0341
      2 C          -0.5932   59.8554   72.8565 C.ar    1  UNL1        0.0013
      3 C          -1.4656   60.9146   72.6917 C.ar    1  UNL1       -0.0001
      4 C          -1.1684   61.9215   71.7921 C.ar    1  UNL1       -0.0001
      5 C           0.0037   61.8714   71.0613 C.ar    1  UNL1        0.0013
      6 C           0.8789   60.8145   71.2299 C.ar    1  UNL1        0.0342
      7 C           1.5356   58.6558   72.3128 C.3     1  UNL1        0.1300
      8 N           1.8477   58.5010   73.7398 N.4     1  UNL1        0.2613
      9 H           2.3985   59.3017   74.0495 H       1  UNL1        0.2042
     10 H           0.9720   58.4470   74.2600 H       1  UNL1        0.2042
     11 C           2.6120   57.2699   73.9810 C.3     1  UNL1        0.1333
     12 N           3.7270   56.9413   77.4396 N.ar    1  UNL1       -0.2283
     13 C           3.9786   57.1752   76.1316 C.ar    1  UNL1        0.1034
     14 C           2.8055   57.0811   75.4636 C.ar    1  UNL1        0.0725
     15 C           1.8050   56.7716   76.3914 C.ar    1  UNL1        0.1235
     16 N           2.3560   56.6875   77.5755 N.ar    1  UNL1       -0.1636
     17 C           6.5367   56.9570   80.5190 C.ar    1  UNL1        0.0001
     18 C           5.4744   57.8417   80.5496 C.ar    1  UNL1        0.0015
     19 C           4.5419   57.8389   79.5308 C.ar    1  UNL1        0.0191
     20 C           4.6719   56.9465   78.4752 C.ar    1  UNL1        0.0828
     21 C           5.7364   56.0555   78.4501 C.ar    1  UNL1        0.0191
     22 C           6.6690   56.0673   79.4688 C.ar    1  UNL1        0.0015
     23 C           2.1566   60.7597   70.4326 C.3     1  UNL1        0.1328
     24 N           2.3219   62.0138   69.6857 N.4     1  UNL1        0.2819
     25 C           3.3376   61.8700   68.6334 C.3     1  UNL1        0.1276
     26 C           3.4229   63.1695   67.8294 C.3     1  UNL1        0.1526
     27 N           3.7575   64.2798   68.7320 N.pl3   1  UNL1       -0.2973
     28 C           2.7420   64.4237   69.7843 C.3     1  UNL1        0.1526
     29 C           2.6566   63.1241   70.5884 C.3     1  UNL1        0.1276
     30 H           1.4319   62.2303   69.2370 H       1  UNL1        0.2072
     31 C           3.9148   65.4722   68.0218 C.ar    1  UNL1        0.0481
     32 C           4.8980   65.5767   67.0461 C.ar    1  UNL1        0.0145
     33 C           5.0478   66.7557   66.3426 C.ar    1  UNL1        0.0013
     34 C           4.2272   67.8347   66.6157 C.ar    1  UNL1        0.0001
     35 C           3.2508   67.7357   67.5899 C.ar    1  UNL1        0.0013
     36 C           3.0923   66.5580   68.2936 C.ar    1  UNL1        0.0145
@<TRIPOS>UNITY_ATOM_ATTR
8 1
charge 1
24 1
charge 1
@<TRIPOS>BOND
     1    17    22   ar
     2    17    18   ar
     3    18    19   ar
     4    19    20   ar
     5    20    21   ar
     6    20    12    1
     7    21    22   ar
     8    12    16   ar
     9    12    13   ar
    10    13    14   ar
    11    14    15   ar
    12    14    11    1
    13    15    16   ar
    14    11     8    1
    15     8     7    1
    16     7     1    1
    17     1     6   ar
    18     1     2   ar
    19     2     3   ar
    20     3     4   ar
    21     4     5   ar
    22     5     6   ar
    23     6    23    1
    24    23    24    1
    25    24    29    1
    26    24    25    1
    27    25    26    1
    28    26    27    1
    29    27    28    1
    30    27    31    1
    31    28    29    1
    32    31    36   ar
    33    31    32   ar
    34    32    33   ar
    35    33    34   ar
    36    34    35   ar
    37    35    36   ar
    38     8     9    1
    39     8    10    1
    40    24    30    1
#	Name:			ZINC30978055
#	Creating user name:	trannguyen
#	Creation time:		Thu Dec  1 16:45:04 2022


#	Modifying user name:	trannguyen
#	Modification time:	Thu Dec  1 16:45:04 2022

@<TRIPOS>MOLECULE
ZINC30978055
 43 47 0 0 0
SMALL
GASTEIGER

@<TRIPOS>ATOM
      1 C           0.4390   60.6488   72.6511 C.3     1  UNL1        0.0883
      2 C           0.9173   59.7146   73.7660 C.3     1  UNL1        0.0702
      3 C           0.0714   59.9494   75.0196 C.3     1  UNL1        0.1064
      4 N          -1.3416   59.6920   74.7133 N.4     1  UNL1        0.2830
      5 C          -1.8362   60.6089   73.6785 C.3     1  UNL1        0.1064
      6 C          -1.0472   60.3939   72.3850 C.3     1  UNL1        0.0702
      7 H          -1.4125   58.7426   74.3473 H       1  UNL1        0.2072
      8 N           1.3538   61.3420   70.4599 N.am    1  UNL1       -0.3004
      9 C           1.2286   60.3803   71.3958 C.2     1  UNL1        0.2226
     10 O           1.7514   59.2990   71.2278 O.2     1  UNL1       -0.2751
     11 H           0.9294   62.2199   70.5962 H       1  UNL1        0.1497
     12 C           2.1213   61.0812   69.2397 C.3     1  UNL1        0.1163
     13 C           4.3719   64.5601   68.2009 C.ar    1  UNL1        0.0326
     14 C           3.7636   63.8097   67.2121 C.ar    1  UNL1        0.0011
     15 C           3.0385   62.6817   67.5479 C.ar    1  UNL1       -0.0027
     16 C           2.9149   62.3088   68.8733 C.ar    1  UNL1       -0.0026
     17 C           3.5188   63.0622   69.8625 C.ar    1  UNL1       -0.0027
     18 C           4.2470   64.1879   69.5264 C.ar    1  UNL1        0.0011
     19 C           5.1659   65.7874   67.8344 C.3     1  UNL1        0.1328
     20 C           5.1323   68.8688   64.0009 C.3     1  UNL1        0.0061
     21 C           4.2706   68.1396   65.0337 C.3     1  UNL1        0.0555
     22 C           3.4609   69.1614   65.8368 C.3     1  UNL1        0.0120
     23 C           2.6474   68.4283   66.9071 C.3     1  UNL1        0.0611
     24 C           3.5960   67.6299   67.8041 C.3     1  UNL1        0.1057
     25 N           4.3468   66.6662   66.9892 N.4     1  UNL1        0.2792
     26 C           5.1721   67.3493   65.9849 C.3     1  UNL1        0.1054
     27 H           3.6709   66.0852   66.4932 H       1  UNL1        0.2070
     28 C          -2.1663   59.7728   75.9263 C.3     1  UNL1        0.1944
     29 C          -2.7453   58.4153   76.2314 C.ar    1  UNL1        0.2926
     30 N          -2.1532   57.2600   76.0569 N.ar    1  UNL1       -0.1858
     31 C          -3.0454   56.3296   76.4653 C.ar    1  UNL1        0.2035
     32 N          -4.1160   56.9681   76.8599 N.ar    1  UNL1       -0.0558
     33 O          -3.9570   58.1643   76.7365 O.2     1  UNL1       -0.3309
     34 C          -2.8467   54.8587   76.4652 C.ar    1  UNL1        0.0391
     35 C          -3.1808   54.1081   75.3399 C.ar    1  UNL1        0.0028
     36 C          -2.9891   52.7413   75.3432 C.ar    1  UNL1       -0.0042
     37 C          -2.4765   52.1152   76.4651 C.ar    1  UNL1       -0.0228
     38 C          -2.1479   52.8547   77.5868 C.ar    1  UNL1       -0.0042
     39 C          -2.3307   54.2228   77.5924 C.ar    1  UNL1        0.0028
     40 C          -2.2756   50.6216   76.4652 C.3     1  UNL1        0.0189
     41 C          -3.3295   49.9652   75.5713 C.3     1  UNL1        0.0044
     42 C          -0.8793   50.2948   75.9319 C.3     1  UNL1        0.0044
     43 C          -2.4140   50.0885   77.8926 C.3     1  UNL1        0.0044
@<TRIPOS>UNITY_ATOM_ATTR
4 1
charge 1
25 1
charge 1
@<TRIPOS>BOND
     1    20    21    1
     2    21    26    1
     3    21    22    1
     4    22    23    1
     5    23    24    1
     6    24    25    1
     7    25    26    1
     8    25    19    1
     9    19    13    1
    10    13    18   ar
    11    13    14   ar
    12    14    15   ar
    13    15    16   ar
    14    16    17   ar
    15    16    12    1
    16    17    18   ar
    17    12     8    1
    18     8     9   am
    19     9    10    2
    20     9     1    1
    21     1     6    1
    22     1     2    1
    23     2     3    1
    24     3     4    1
    25     4     5    1
    26     4    28    1
    27     5     6    1
    28    28    29    1
    29    29    33   ar
    30    29    30   ar
    31    30    31   ar
    32    31    32   ar
    33    31    34    1
    34    32    33   ar
    35    34    39   ar
    36    34    35   ar
    37    35    36   ar
    38    36    37   ar
    39    37    38   ar
    40    37    40    1
    41    38    39   ar
    42    40    41    1
    43    40    42    1
    44    40    43    1
    45    25    27    1
    46     8    11    1
    47     4     7    1
#	Name:			ZINC31039582
#	Creating user name:	trannguyen
#	Creation time:		Thu Dec  1 16:45:04 2022


#	Modifying user name:	trannguyen
#	Modification time:	Thu Dec  1 16:45:04 2022

@<TRIPOS>MOLECULE
ZINC31039582
 30 33 0 0 0
SMALL
GASTEIGER

@<TRIPOS>ATOM
      1 N           2.9521   62.3215   70.2972 N.am    1  UNL1       -0.2868
      2 C           3.7645   62.9611   69.4326 C.2     1  UNL1        0.3012
      3 O           3.6922   62.7248   68.2421 O.2     1  UNL1       -0.2528
      4 N           4.6569   63.8628   69.8878 N.am    1  UNL1       -0.2848
      5 H           3.0106   62.5129   71.2611 H       1  UNL1        0.1512
      6 H           4.7153   64.0542   70.8517 H       1  UNL1        0.1513
      7 C           2.6965   60.0213   69.5067 C.3     1  UNL1        0.0262
      8 C           1.9820   61.3415   69.8024 C.3     1  UNL1        0.0956
      9 C           0.9197   61.1148   70.8470 C.ar    1  UNL1       -0.0045
     10 C           0.9419   59.9639   71.6138 C.ar    1  UNL1       -0.0027
     11 C          -0.0257   59.7535   72.5753 C.ar    1  UNL1       -0.0003
     12 C          -1.0323   60.6980   72.7654 C.ar    1  UNL1       -0.0000
     13 C          -1.0529   61.8532   71.9864 C.ar    1  UNL1       -0.0003
     14 C          -0.0772   62.0558   71.0314 C.ar    1  UNL1       -0.0027
     15 C          -2.0790   60.4745   73.7933 C.ar    1  UNL1       -0.0000
     16 C          -3.3741   60.9449   73.5864 C.ar    1  UNL1       -0.0000
     17 C          -4.3447   60.7299   74.5437 C.ar    1  UNL1        0.0000
     18 C          -4.0312   60.0582   75.7115 C.ar    1  UNL1        0.0000
     19 C          -2.7459   59.5936   75.9244 C.ar    1  UNL1        0.0000
     20 C          -1.7687   59.7984   74.9715 C.ar    1  UNL1       -0.0000
     21 C           5.5399   64.5580   68.9480 C.3     1  UNL1        0.1178
     22 C           4.8094   65.7307   68.3462 C.ar    1  UNL1        0.0007
     23 C           3.9179   66.4562   69.1144 C.ar    1  UNL1        0.0007
     24 C           3.2451   67.5324   68.5666 C.ar    1  UNL1        0.0399
     25 C           3.4633   67.8869   67.2451 C.ar    1  UNL1        0.1764
     26 C           4.3619   67.1564   66.4714 C.ar    1  UNL1        0.1762
     27 C           5.0327   66.0791   67.0271 C.ar    1  UNL1        0.0376
     28 O           4.3999   67.6981   65.2191 O.3     1  UNL1       -0.4346
     29 C           3.8260   69.0121   65.3508 C.3     1  UNL1        0.4294
     30 O           2.9383   68.8861   66.4776 O.3     1  UNL1       -0.4346
@<TRIPOS>BOND
     1     7     8    1
     2     8     9    1
     3     8     1    1
     4     9    14   ar
     5     9    10   ar
     6    10    11   ar
     7    11    12   ar
     8    12    13   ar
     9    12    15    1
    10    13    14   ar
    11    15    20   ar
    12    15    16   ar
    13    16    17   ar
    14    17    18   ar
    15    18    19   ar
    16    19    20   ar
    17     1     2   am
    18     2     3    2
    19     2     4   am
    20     4    21    1
    21    21    22    1
    22    22    27   ar
    23    22    23   ar
    24    23    24   ar
    25    24    25   ar
    26    25    30    1
    27    25    26   ar
    28    26    27   ar
    29    26    28    1
    30    28    29    1
    31    29    30    1
    32     1     5    1
    33     4     6    1
#	Name:			ZINC31334660
#	Creating user name:	trannguyen
#	Creation time:		Thu Dec  1 16:45:04 2022


#	Modifying user name:	trannguyen
#	Modification time:	Thu Dec  1 16:45:04 2022

@<TRIPOS>MOLECULE
ZINC31334660
 42 46 0 0 0
SMALL
GASTEIGER

@<TRIPOS>ATOM
      1 C          -3.6647   60.5312   75.2729 C.3     1  UNL1        0.0775
      2 C          -4.6259   59.8108   74.3249 C.3     1  UNL1        0.0575
      3 C          -6.0526   59.9329   74.8692 C.3     1  UNL1        0.0119
      4 C          -6.1890   61.2703   75.6037 C.3     1  UNL1        0.0575
      5 C          -5.2857   62.3059   74.9305 C.3     1  UNL1        0.0775
      6 N          -3.8784   61.9805   75.1897 N.4     1  UNL1        0.2494
      7 H          -3.3072   62.3563   74.4327 H       1  UNL1        0.2032
      8 H          -3.6154   62.3933   76.0846 H       1  UNL1        0.2032
      9 C          -2.2225   60.2062   74.8787 C.3     1  UNL1        0.1400
     10 O          -1.4451   61.4052   74.8857 O.3     1  UNL1       -0.3805
     11 H          -0.5309   61.1992   74.6357 H       1  UNL1        0.2105
     12 C          -1.6326   59.2101   75.8790 C.3     1  UNL1        0.0592
     13 C           1.9309   60.8400   77.5795 C.ar    1  UNL1       -0.0000
     14 C           0.7155   61.0271   78.2109 C.ar    1  UNL1       -0.0003
     15 C          -0.4377   60.4997   77.6605 C.ar    1  UNL1       -0.0042
     16 C          -0.3754   59.7853   76.4788 C.ar    1  UNL1       -0.0196
     17 C           0.8407   59.5938   75.8501 C.ar    1  UNL1       -0.0042
     18 C           1.9932   60.1256   76.3978 C.ar    1  UNL1       -0.0003
     19 C          -2.2027   59.5937   73.4768 C.3     1  UNL1        0.0592
     20 C          -1.1662   60.2947   72.6370 C.ar    1  UNL1       -0.0196
     21 C          -1.4303   61.5479   72.1169 C.ar    1  UNL1       -0.0042
     22 C          -0.4778   62.1930   71.3505 C.ar    1  UNL1       -0.0003
     23 C           0.7349   61.5804   71.0954 C.ar    1  UNL1       -0.0000
     24 C           0.9970   60.3249   71.6111 C.ar    1  UNL1       -0.0003
     25 C           0.0464   59.6821   72.3819 C.ar    1  UNL1       -0.0042
     26 C          -5.5987   63.6941   75.4926 C.3     1  UNL1        0.1400
     27 O          -4.3824   64.4247   75.6623 O.3     1  UNL1       -0.3805
     28 H          -3.9377   64.5157   74.8050 H       1  UNL1        0.2105
     29 C          -6.5125   64.4435   74.5210 C.3     1  UNL1        0.0592
     30 C          -7.9077   64.5025   75.0878 C.ar    1  UNL1       -0.0196
     31 C          -8.8472   63.5610   74.7109 C.ar    1  UNL1       -0.0042
     32 C         -10.1255   63.6122   75.2344 C.ar    1  UNL1       -0.0003
     33 C         -10.4675   64.6112   76.1267 C.ar    1  UNL1       -0.0000
     34 C          -9.5295   65.5557   76.4994 C.ar    1  UNL1       -0.0003
     35 C          -8.2497   65.5014   75.9799 C.ar    1  UNL1       -0.0042
     36 C          -6.3003   63.5505   76.8447 C.3     1  UNL1        0.0592
     37 C          -5.3179   63.8306   77.9526 C.ar    1  UNL1       -0.0196
     38 C          -5.0409   65.1347   78.3175 C.ar    1  UNL1       -0.0042
     39 C          -4.1433   65.3914   79.3370 C.ar    1  UNL1       -0.0003
     40 C          -3.5148   64.3442   79.9845 C.ar    1  UNL1       -0.0000
     41 C          -3.7879   63.0402   79.6161 C.ar    1  UNL1       -0.0003
     42 C          -4.6895   62.7833   78.6001 C.ar    1  UNL1       -0.0042
@<TRIPOS>UNITY_ATOM_ATTR
6 1
charge 1
@<TRIPOS>BOND
     1    13    18   ar
     2    13    14   ar
     3    14    15   ar
     4    15    16   ar
     5    16    17   ar
     6    16    12    1
     7    17    18   ar
     8    12     9    1
     9     9    19    1
    10     9     1    1
    11     9    10    1
    12    19    20    1
    13    20    25   ar
    14    20    21   ar
    15    21    22   ar
    16    22    23   ar
    17    23    24   ar
    18    24    25   ar
    19     1     6    1
    20     1     2    1
    21     2     3    1
    22     3     4    1
    23     4     5    1
    24     5     6    1
    25     5    26    1
    26    26    29    1
    27    26    36    1
    28    26    27    1
    29    29    30    1
    30    30    35   ar
    31    30    31   ar
    32    31    32   ar
    33    32    33   ar
    34    33    34   ar
    35    34    35   ar
    36    36    37    1
    37    37    42   ar
    38    37    38   ar
    39    38    39   ar
    40    39    40   ar
    41    40    41   ar
    42    41    42   ar
    43     6     7    1
    44     6     8    1
    45    27    28    1
    46    10    11    1
#	Name:			ZINC31334671
#	Creating user name:	trannguyen
#	Creation time:		Thu Dec  1 16:45:04 2022


#	Modifying user name:	trannguyen
#	Modification time:	Thu Dec  1 16:45:04 2022

@<TRIPOS>MOLECULE
ZINC31334671
 42 46 0 0 0
SMALL
GASTEIGER

@<TRIPOS>ATOM
      1 C           0.2252   60.0889   74.4316 C.3     1  UNL1        0.0775
      2 C          -1.1019   60.8303   74.6061 C.3     1  UNL1        0.0575
      3 C          -1.8712   60.7999   73.2818 C.3     1  UNL1        0.0119
      4 C          -0.8683   60.8109   72.1238 C.3     1  UNL1        0.0575
      5 C           0.3704   61.6080   72.5434 C.3     1  UNL1        0.0775
      6 N           1.1183   60.8667   73.5653 N.4     1  UNL1        0.2494
      7 H           1.7680   60.2304   73.1033 H       1  UNL1        0.2032
      8 H           1.6181   61.5404   74.1456 H       1  UNL1        0.2032
      9 C           0.8846   59.8974   75.7990 C.3     1  UNL1        0.1400
     10 O           2.2487   60.3180   75.7330 O.3     1  UNL1       -0.3805
     11 H           2.6667   60.1965   76.5999 H       1  UNL1        0.2105
     12 C           0.1431   60.7332   76.8443 C.3     1  UNL1        0.0592
     13 C           2.0808   60.3249   80.6292 C.ar    1  UNL1       -0.0000
     14 C           0.9032   59.6456   80.3788 C.ar    1  UNL1       -0.0003
     15 C           0.2762   59.7776   79.1539 C.ar    1  UNL1       -0.0042
     16 C           0.8266   60.5892   78.1796 C.ar    1  UNL1       -0.0196
     17 C           2.0070   61.2644   78.4282 C.ar    1  UNL1       -0.0042
     18 C           2.6317   61.1358   79.6546 C.ar    1  UNL1       -0.0003
     19 C           0.8248   58.4198   76.1915 C.3     1  UNL1        0.0592
     20 C           2.2238   57.8668   76.2806 C.ar    1  UNL1       -0.0196
     21 C           2.8995   57.5072   75.1294 C.ar    1  UNL1       -0.0042
     22 C           4.1845   57.0040   75.2108 C.ar    1  UNL1       -0.0003
     23 C           4.7902   56.8518   76.4439 C.ar    1  UNL1       -0.0000
     24 C           4.1126   57.2064   77.5954 C.ar    1  UNL1       -0.0003
     25 C           2.8294   57.7136   77.5138 C.ar    1  UNL1       -0.0042
     26 C           1.2645   61.8342   71.3225 C.3     1  UNL1        0.1400
     27 O           2.6348   61.6943   71.7033 O.3     1  UNL1       -0.3805
     28 H           2.7838   60.8016   72.0522 H       1  UNL1        0.2105
     29 C           0.9268   60.8022   70.2447 C.3     1  UNL1        0.0592
     30 C           1.7727   59.5712   70.4451 C.ar    1  UNL1       -0.0196
     31 C           2.8930   59.3674   69.6613 C.ar    1  UNL1       -0.0042
     32 C           3.6714   58.2404   69.8480 C.ar    1  UNL1       -0.0003
     33 C           3.3245   57.3128   70.8124 C.ar    1  UNL1       -0.0000
     34 C           2.2013   57.5141   71.5928 C.ar    1  UNL1       -0.0003
     35 C           1.4253   58.6433   71.4089 C.ar    1  UNL1       -0.0042
     36 C           1.0293   63.2422   70.7722 C.3     1  UNL1        0.0592
     37 C           2.1040   63.5757   69.7697 C.ar    1  UNL1       -0.0196
     38 C           2.3912   62.6937   68.7450 C.ar    1  UNL1       -0.0042
     39 C           3.3739   63.0017   67.8229 C.ar    1  UNL1       -0.0003
     40 C           4.0759   64.1876   67.9311 C.ar    1  UNL1       -0.0000
     41 C           3.7924   65.0674   68.9589 C.ar    1  UNL1       -0.0003
     42 C           2.8066   64.7613   69.8785 C.ar    1  UNL1       -0.0042
@<TRIPOS>UNITY_ATOM_ATTR
6 1
charge 1
@<TRIPOS>BOND
     1    13    18   ar
     2    13    14   ar
     3    14    15   ar
     4    15    16   ar
     5    16    17   ar
     6    16    12    1
     7    17    18   ar
     8    12     9    1
     9     9    19    1
    10     9     1    1
    11     9    10    1
    12    19    20    1
    13    20    25   ar
    14    20    21   ar
    15    21    22   ar
    16    22    23   ar
    17    23    24   ar
    18    24    25   ar
    19     1     6    1
    20     1     2    1
    21     2     3    1
    22     3     4    1
    23     4     5    1
    24     5     6    1
    25     5    26    1
    26    26    29    1
    27    26    36    1
    28    26    27    1
    29    29    30    1
    30    30    35   ar
    31    30    31   ar
    32    31    32   ar
    33    32    33   ar
    34    33    34   ar
    35    34    35   ar
    36    36    37    1
    37    37    42   ar
    38    37    38   ar
    39    38    39   ar
    40    39    40   ar
    41    40    41   ar
    42    41    42   ar
    43     6     7    1
    44     6     8    1
    45    27    28    1
    46    10    11    1
#	Name:			ZINC31490423
#	Creating user name:	trannguyen
#	Creation time:		Thu Dec  1 16:45:04 2022


#	Modifying user name:	trannguyen
#	Modification time:	Thu Dec  1 16:45:04 2022

@<TRIPOS>MOLECULE
ZINC31490423
 39 42 0 0 0
SMALL
GASTEIGER

@<TRIPOS>ATOM
      1 C          -3.0485   60.7521   73.6240 C.3     1  UNL1        0.0000
      2 C          -1.5961   61.2336   73.6293 C.3     1  UNL1        0.0002
      3 C          -0.9215   60.8336   72.3156 C.3     1  UNL1        0.0063
      4 C           0.0289   61.9470   71.8708 C.3     1  UNL1        0.0597
      5 C           2.9505   63.5780   68.1750 C.ar    1  UNL1        0.1721
      6 C           3.0404   62.1972   68.1711 C.ar    1  UNL1        0.0359
      7 C           2.5259   61.4577   69.2255 C.ar    1  UNL1       -0.0118
      8 C           1.9301   62.0994   70.2909 C.ar    1  UNL1        0.0260
      9 C           1.8316   63.4832   70.2960 C.ar    1  UNL1        0.0409
     10 C           2.3405   64.2256   69.2452 C.ar    1  UNL1        0.1722
     11 C           1.3731   61.3386   71.4658 C.3     1  UNL1        0.0750
     12 N           1.1813   59.9270   71.1190 N.4     1  UNL1        0.2535
     13 C           2.4243   59.3650   70.5670 C.3     1  UNL1        0.1071
     14 C           2.6379   59.9555   69.1693 C.3     1  UNL1        0.0871
     15 H           0.4386   59.8488   70.4242 H       1  UNL1        0.2036
     16 H           0.9274   59.4094   71.9605 H       1  UNL1        0.2036
     17 C           3.7126   63.5932   65.9223 C.3     1  UNL1        0.2526
     18 O           3.4552   64.2987   67.1381 O.3     1  UNL1       -0.4684
     19 O           2.2456   65.5821   69.2583 O.3     1  UNL1       -0.4684
     20 C           3.4647   66.3188   69.1446 C.3     1  UNL1        0.2526
     21 C          -3.1323   59.3771   74.2897 C.3     1  UNL1        0.0002
     22 C          -4.4988   59.2171   74.9592 C.3     1  UNL1        0.0063
     23 C          -4.6011   60.1781   76.1453 C.3     1  UNL1        0.0597
     24 C          -6.0728   60.3838   76.5095 C.3     1  UNL1        0.0750
     25 C          -6.5854   61.6245   75.8258 C.ar    1  UNL1        0.0260
     26 C          -5.7723   62.7491   75.8064 C.ar    1  UNL1        0.0409
     27 C          -6.2009   63.9126   75.1934 C.ar    1  UNL1        0.1722
     28 C          -7.4560   63.9539   74.5927 C.ar    1  UNL1        0.1721
     29 C          -8.2624   62.8302   74.6134 C.ar    1  UNL1        0.0359
     30 C          -7.8273   61.6654   75.2287 C.ar    1  UNL1       -0.0118
     31 C          -8.7413   60.4666   75.2216 C.3     1  UNL1        0.0871
     32 C          -8.2837   59.4547   76.2724 C.3     1  UNL1        0.1071
     33 N          -6.8441   59.2100   76.0889 N.4     1  UNL1        0.2535
     34 H          -6.5651   58.4050   76.6496 H       1  UNL1        0.2036
     35 H          -6.6609   59.0278   75.1021 H       1  UNL1        0.2036
     36 O          -7.8869   65.0932   73.9881 O.3     1  UNL1       -0.4684
     37 C          -9.2868   65.3726   74.0532 C.3     1  UNL1        0.2526
     38 O          -5.3998   65.0113   75.1779 O.3     1  UNL1       -0.4684
     39 C          -5.4215   65.8465   76.3373 C.3     1  UNL1        0.2526
@<TRIPOS>UNITY_ATOM_ATTR
12 1
charge 1
33 1
charge 1
@<TRIPOS>BOND
     1    17    18    1
     2    18     5    1
     3     5    10   ar
     4     5     6   ar
     5     6     7   ar
     6     7    14    1
     7     7     8   ar
     8     8     9   ar
     9     8    11    1
    10     9    10   ar
    11    10    19    1
    12    19    20    1
    13    11    12    1
    14    11     4    1
    15    12    13    1
    16    13    14    1
    17     4     3    1
    18     3     2    1
    19     2     1    1
    20     1    21    1
    21    21    22    1
    22    22    23    1
    23    23    24    1
    24    24    33    1
    25    24    25    1
    26    25    30   ar
    27    25    26   ar
    28    26    27   ar
    29    27    28   ar
    30    27    38    1
    31    28    29   ar
    32    28    36    1
    33    29    30   ar
    34    30    31    1
    35    31    32    1
    36    32    33    1
    37    36    37    1
    38    38    39    1
    39    12    15    1
    40    12    16    1
    41    33    34    1
    42    33    35    1
#	Name:			ZINC31542139
#	Creating user name:	trannguyen
#	Creation time:		Thu Dec  1 16:45:04 2022


#	Modifying user name:	trannguyen
#	Modification time:	Thu Dec  1 16:45:04 2022

@<TRIPOS>MOLECULE
ZINC31542139
 41 43 0 0 0
SMALL
GASTEIGER

@<TRIPOS>ATOM
      1 C           2.9719   58.3110   70.5578 C.2     1  UNL1        0.2476
      2 O           3.6805   58.1547   69.5867 O.2     1  UNL1       -0.2731
      3 N           2.4952   59.5363   70.8540 N.am    1  UNL1       -0.2528
      4 C           2.8065   60.5880   70.0705 C.2     1  UNL1        0.2464
      5 O           3.5151   60.4316   69.0994 O.2     1  UNL1       -0.2729
      6 H           1.9197   59.6633   71.6426 H       1  UNL1        0.1576
      7 C           2.6240   57.1352   71.4338 C.3     1  UNL1        0.1940
      8 N           1.8219   57.5953   72.5752 N.4     1  UNL1       -0.1315
      9 H           1.9296   58.6049   72.6732 H       1  UNL1        0.1685
     10 O           2.2048   57.0164   73.6792 O.3     1  UNL1       -0.3643
     11 C           2.3124   57.7956   74.7727 C.2     1  UNL1        0.3582
     12 O           2.0301   58.9753   74.7082 O.2     1  UNL1       -0.2432
     13 C           4.1089   55.5379   79.7506 C.3     1  UNL1        0.0310
     14 C           3.6384   56.1288   78.4467 C.ar    1  UNL1       -0.0225
     15 C           4.5615   56.4905   77.4816 C.ar    1  UNL1       -0.0083
     16 C           4.1378   57.0324   76.2859 C.ar    1  UNL1       -0.0162
     17 C           2.7737   57.2153   76.0506 C.ar    1  UNL1        0.0694
     18 C           1.8478   56.8527   77.0308 C.ar    1  UNL1       -0.0162
     19 C           2.2851   56.3070   78.2199 C.ar    1  UNL1       -0.0083
     20 C           0.3739   57.0517   76.7880 C.3     1  UNL1        0.0312
     21 C           5.1448   57.4257   75.2360 C.3     1  UNL1        0.0312
     22 C           2.2735   61.9581   70.4016 C.3     1  UNL1        0.1558
     23 N           1.2517   61.8455   71.4454 N.am    1  UNL1       -0.2637
     24 C           0.0755   62.4893   71.3094 C.2     1  UNL1        0.4023
     25 O          -0.1375   63.1632   70.3209 O.2     1  UNL1       -0.2264
     26 H           1.4243   61.2996   72.2464 H       1  UNL1        0.1532
     27 O          -0.8613   62.3903   72.2713 O.3     1  UNL1       -0.4297
     28 C          -1.7670   61.2579   72.1954 C.3     1  UNL1        0.2367
     29 C          -2.1212   60.8037   73.5880 C.ar    1  UNL1        0.0213
     30 C          -3.4278   60.8888   74.0313 C.ar    1  UNL1       -0.0007
     31 C          -3.7536   60.4677   75.3069 C.ar    1  UNL1       -0.0002
     32 C          -2.7711   59.9708   76.1428 C.ar    1  UNL1       -0.0000
     33 C          -1.4635   59.8910   75.7015 C.ar    1  UNL1       -0.0002
     34 C          -1.1386   60.3073   74.4239 C.ar    1  UNL1       -0.0007
     35 C           3.4171   62.8434   70.9008 C.3     1  UNL1        0.0554
     36 C           3.6964   63.9226   69.8867 C.ar    1  UNL1       -0.0200
     37 C           4.9990   64.2107   69.5248 C.ar    1  UNL1       -0.0042
     38 C           5.2549   65.1973   68.5910 C.ar    1  UNL1       -0.0003
     39 C           4.2086   65.9030   68.0268 C.ar    1  UNL1       -0.0000
     40 C           2.9063   65.6185   68.3925 C.ar    1  UNL1       -0.0003
     41 C           2.6501   64.6283   69.3225 C.ar    1  UNL1       -0.0042
@<TRIPOS>BOND
     1    13    14    1
     2    14    19   ar
     3    14    15   ar
     4    15    16   ar
     5    16    17   ar
     6    16    21    1
     7    17    18   ar
     8    17    11    1
     9    18    19   ar
    10    18    20    1
    11    11    12    2
    12    11    10    1
    13    10     8    1
    14     8     7    1
    15     7     1    1
    16     1     2    2
    17     1     3   am
    18     3     4   am
    19     4     5    2
    20     4    22    1
    21    22    35    1
    22    22    23    1
    23    35    36    1
    24    36    41   ar
    25    36    37   ar
    26    37    38   ar
    27    38    39   ar
    28    39    40   ar
    29    40    41   ar
    30    23    24   am
    31    24    25    2
    32    24    27    1
    33    27    28    1
    34    28    29    1
    35    29    34   ar
    36    29    30   ar
    37    30    31   ar
    38    31    32   ar
    39    32    33   ar
    40    33    34   ar
    41     8     9    1
    42     3     6    1
    43    23    26    1
#	Name:			ZINC31555417
#	Creating user name:	trannguyen
#	Creation time:		Thu Dec  1 16:45:04 2022


#	Modifying user name:	trannguyen
#	Modification time:	Thu Dec  1 16:45:04 2022

@<TRIPOS>MOLECULE
ZINC31555417
 19 21 0 0 0
SMALL
GASTEIGER

@<TRIPOS>ATOM
      1 C           2.1002   59.7283   76.3508 C.3     1  UNL1        0.0109
      2 C           0.8408   58.8857   76.5624 C.3     1  UNL1        0.0787
      3 C           0.5048   58.8207   78.0591 C.3     1  UNL1        0.1069
      4 N          -0.8408   58.2561   78.2342 N.4     1  UNL1        0.2591
      5 C          -1.8828   59.2009   77.8005 C.3     1  UNL1        0.1465
      6 C          -1.5485   59.6718   76.4039 C.ar    1  UNL1        0.0857
      7 C          -0.3258   59.5251   75.8536 C.ar    1  UNL1        0.0017
      8 C          -0.3793   60.0880   74.5107 C.ar    1  UNL1        0.0136
      9 C           0.5459   60.2290   73.4734 C.ar    1  UNL1        0.0073
     10 C           0.1610   60.8301   72.2897 C.ar    1  UNL1        0.0253
     11 C          -1.1446   61.2940   72.1299 C.ar    1  UNL1        0.0076
     12 C          -2.0624   61.1648   73.1472 C.ar    1  UNL1        0.0175
     13 C          -1.6966   60.5577   74.3439 C.ar    1  UNL1        0.0562
     14 N          -2.3789   60.2875   75.5141 N.ar    1  UNL1       -0.3522
     15 H          -0.9823   58.0362   79.2201 H       1  UNL1        0.2039
     16 H          -0.9122   57.4155   77.6608 H       1  UNL1        0.2039
     17 H          -3.3240   60.5067   75.6811 H       1  UNL1        0.1658
     18 S           1.3235   61.0102   70.9779 S.3     1  UNL1       -0.1127
     19 C           0.8980   62.6075   70.2308 C.3     1  UNL1        0.0742
@<TRIPOS>UNITY_ATOM_ATTR
4 1
charge 1
@<TRIPOS>BOND
     1     1     2    1
     2     2     7    1
     3     2     3    1
     4     3     4    1
     5     4     5    1
     6     5     6    1
     7     6    14   ar
     8     6     7   ar
     9     7     8   ar
    10     8    13   ar
    11     8     9   ar
    12     9    10   ar
    13    10    11   ar
    14    10    18    1
    15    11    12   ar
    16    12    13   ar
    17    13    14   ar
    18    18    19    1
    19     4    15    1
    20     4    16    1
    21    14    17    1
#	Name:			ZINC31702616
#	Creating user name:	trannguyen
#	Creation time:		Thu Dec  1 16:45:04 2022


#	Modifying user name:	trannguyen
#	Modification time:	Thu Dec  1 16:45:04 2022

@<TRIPOS>MOLECULE
ZINC31702616
 40 43 0 0 0
SMALL
GASTEIGER

@<TRIPOS>ATOM
      1 C           2.0138   56.8783   77.9016 C.ar    1  UNL1        0.0170
      2 C           3.3130   56.4384   78.4305 C.ar    1  UNL1        0.0170
      3 C           4.6335   56.8103   78.1741 C.ar    1  UNL1        0.0015
      4 C           5.6542   56.1988   78.8466 C.ar    1  UNL1        0.0001
      5 C           5.3870   55.2106   79.7838 C.ar    1  UNL1        0.0015
      6 C           4.0906   54.8282   80.0516 C.ar    1  UNL1        0.0170
      7 C           3.0359   55.4375   79.3780 C.ar    1  UNL1        0.0566
      8 N           1.6680   55.2719   79.4303 N.ar    1  UNL1       -0.3531
      9 C           1.0536   56.1305   78.5501 C.ar    1  UNL1        0.0566
     10 H           1.1995   54.6318   80.0133 H       1  UNL1        0.1659
     11 C           1.3480   59.8667   74.9528 C.ar    1  UNL1        0.1389
     12 C           1.2596   60.1913   76.2996 C.ar    1  UNL1        0.0369
     13 C           1.4750   59.2247   77.2592 C.ar    1  UNL1        0.0032
     14 C           1.7821   57.9188   76.8749 C.ar    1  UNL1        0.0016
     15 C           1.8757   57.5978   75.5201 C.ar    1  UNL1        0.0032
     16 C           1.6538   58.5687   74.5665 C.ar    1  UNL1        0.0369
     17 O           1.1352   60.8222   74.0098 O.3     1  UNL1       -0.4691
     18 C           0.2431   60.4936   72.9430 C.3     1  UNL1        0.2657
     19 C           0.6107   61.3086   71.7014 C.3     1  UNL1        0.1535
     20 N           1.9756   60.9678   71.2785 N.4     1  UNL1        0.2787
     21 H           2.5624   60.9330   72.1120 H       1  UNL1        0.2068
     22 C           2.6714   59.7584   69.2658 C.3     1  UNL1        0.0670
     23 C           2.0148   59.6439   70.6431 C.3     1  UNL1        0.1057
     24 C           2.5222   61.9972   70.3843 C.3     1  UNL1        0.1057
     25 C           1.5426   63.1693   70.2971 C.3     1  UNL1        0.0670
     26 C          -0.4027   56.2355   78.3333 C.ar    1  UNL1        0.0158
     27 C          -1.1679   57.0986   79.1215 C.ar    1  UNL1        0.0045
     28 C          -2.5266   57.1965   78.9127 C.ar    1  UNL1        0.0369
     29 C          -3.1369   56.4313   77.9272 C.ar    1  UNL1        0.1389
     30 C          -2.3807   55.5684   77.1445 C.ar    1  UNL1        0.0369
     31 C          -1.0207   55.4676   77.3431 C.ar    1  UNL1        0.0045
     32 O          -4.4775   56.5269   77.7286 O.3     1  UNL1       -0.4691
     33 C          -4.9167   56.8396   76.4052 C.3     1  UNL1        0.2657
     34 C          -5.4265   58.2816   76.3645 C.3     1  UNL1        0.1535
     35 N          -4.6221   59.0586   75.4121 N.4     1  UNL1        0.2787
     36 H          -4.1765   58.4030   74.7702 H       1  UNL1        0.2068
     37 C          -5.4694   59.9603   74.6203 C.3     1  UNL1        0.1057
     38 C          -6.9025   59.9135   75.1541 C.3     1  UNL1        0.0670
     39 C          -3.5622   59.8042   76.1037 C.3     1  UNL1        0.1057
     40 C          -2.1968   59.2499   75.6921 C.3     1  UNL1        0.0670
@<TRIPOS>UNITY_ATOM_ATTR
20 1
charge 1
35 1
charge 1
@<TRIPOS>BOND
     1    22    23    1
     2    23    20    1
     3    20    24    1
     4    20    19    1
     5    24    25    1
     6    19    18    1
     7    18    17    1
     8    17    11    1
     9    11    16   ar
    10    11    12   ar
    11    12    13   ar
    12    13    14   ar
    13    14    15   ar
    14    14     1    1
    15    15    16   ar
    16     1     9   ar
    17     1     2   ar
    18     2     7   ar
    19     2     3   ar
    20     3     4   ar
    21     4     5   ar
    22     5     6   ar
    23     6     7   ar
    24     7     8   ar
    25     8     9   ar
    26     9    26    1
    27    26    31   ar
    28    26    27   ar
    29    27    28   ar
    30    28    29   ar
    31    29    30   ar
    32    29    32    1
    33    30    31   ar
    34    32    33    1
    35    33    34    1
    36    34    35    1
    37    35    37    1
    38    35    39    1
    39    37    38    1
    40    39    40    1
    41    20    21    1
    42     8    10    1
    43    35    36    1
#	Name:			ZINC31778507
#	Creating user name:	trannguyen
#	Creation time:		Thu Dec  1 16:45:04 2022


#	Modifying user name:	trannguyen
#	Modification time:	Thu Dec  1 16:45:04 2022

@<TRIPOS>MOLECULE
ZINC31778507
 10 10 0 0 0
SMALL
GASTEIGER

@<TRIPOS>ATOM
      1 C           3.3525   66.2425   69.1265 C.3     1  UNL1        0.0613
      2 C           3.8665   64.8610   68.7165 C.3     1  UNL1        0.0672
      3 C           3.7689   64.4772   67.2386 C.3     1  UNL1        0.1549
      4 N           2.8805   63.8797   68.2444 N.4     1  UNL1        0.2771
      5 C           5.0639   64.3374   69.5121 C.3     1  UNL1        0.0613
      6 H           1.8687   63.7871   68.3352 H       1  UNL1        0.2067
      7 C           3.3015   62.5110   68.5720 C.3     1  UNL1        0.1218
      8 C           2.2230   61.8351   69.4212 C.3     1  UNL1        0.1660
      9 C           1.1057   62.7703   69.6304 C.1     1  UNL1        0.0795
     10 N           0.2434   63.4921   69.7918 N.1     1  UNL1       -0.1957
@<TRIPOS>UNITY_ATOM_ATTR
4 1
charge 1
@<TRIPOS>BOND
     1     1     2    1
     2     2     4    1
     3     2     3    1
     4     2     5    1
     5     3     4    1
     6     4     7    1
     7     7     8    1
     8     8     9    1
     9     9    10    3
    10     4     6    1
#	Name:			ZINC31881357
#	Creating user name:	trannguyen
#	Creation time:		Thu Dec  1 16:45:04 2022


#	Modifying user name:	trannguyen
#	Modification time:	Thu Dec  1 16:45:04 2022

@<TRIPOS>MOLECULE
ZINC31881357
 40 41 0 0 0
SMALL
GASTEIGER

@<TRIPOS>ATOM
      1 S           0.5773   59.8111   73.0046 S.3     1  UNL1       -0.0757
      2 S          -0.4779   61.3962   72.2452 S.3     1  UNL1       -0.0757
      3 C           0.7748   62.3838   71.3813 C.3     1  UNL1        0.1292
      4 C           0.2397   62.7990   70.0094 C.3     1  UNL1        0.1150
      5 N           1.2995   62.6454   69.0036 N.4     1  UNL1        0.2550
      6 H           1.4843   63.5514   68.5729 H       1  UNL1        0.2035
      7 H           0.9873   61.9735   68.3025 H       1  UNL1        0.2035
      8 C           2.5369   62.1428   69.6153 C.3     1  UNL1        0.1024
      9 C           3.7194   62.4385   68.6906 C.3     1  UNL1        0.0646
     10 C           4.2312   63.8561   68.9547 C.3     1  UNL1        0.0534
     11 C           4.2000   64.6601   67.6534 C.3     1  UNL1        0.2056
     12 O           4.8893   65.8977   67.8415 O.3     1  UNL1       -0.4761
     13 C           4.4709   66.9561   67.0988 C.ar    1  UNL1        0.1302
     14 C           3.3993   67.7257   67.5278 C.ar    1  UNL1        0.0118
     15 C           2.9796   68.8046   66.7738 C.ar    1  UNL1       -0.0016
     16 C           3.6195   69.1108   65.5870 C.ar    1  UNL1       -0.0047
     17 C           4.6838   68.3416   65.1541 C.ar    1  UNL1       -0.0229
     18 C           5.1110   67.2652   65.9074 C.ar    1  UNL1        0.0079
     19 C           6.2710   66.4272   65.4351 C.3     1  UNL1        0.0339
     20 C           5.3787   68.6779   63.8599 C.3     1  UNL1        0.0308
     21 C           2.6974   67.3887   68.8180 C.3     1  UNL1        0.0342
     22 C           0.2893   59.9087   74.7929 C.3     1  UNL1        0.1292
     23 C           1.4168   59.1846   75.5314 C.3     1  UNL1        0.1150
     24 N           0.9507   57.8580   75.9569 N.4     1  UNL1        0.2550
     25 H           0.7377   57.2986   75.1311 H       1  UNL1        0.2035
     26 H           1.6867   57.4163   76.5078 H       1  UNL1        0.2035
     27 C          -0.2555   57.9656   76.7884 C.3     1  UNL1        0.1024
     28 C          -0.6249   56.5841   77.3323 C.3     1  UNL1        0.0646
     29 C          -2.1081   56.5635   77.7075 C.3     1  UNL1        0.0534
     30 C          -2.8095   57.7701   77.0807 C.3     1  UNL1        0.2056
     31 O          -3.7729   57.3184   76.1267 O.3     1  UNL1       -0.4761
     32 C          -8.4322   58.6264   76.7606 C.3     1  UNL1        0.0308
     33 C          -7.0811   58.8326   76.1259 C.ar    1  UNL1       -0.0229
     34 C          -6.8833   59.8818   75.2475 C.ar    1  UNL1       -0.0047
     35 C          -5.6447   60.0739   74.6638 C.ar    1  UNL1       -0.0016
     36 C          -4.6000   59.2202   74.9609 C.ar    1  UNL1        0.0118
     37 C          -4.7975   58.1629   75.8373 C.ar    1  UNL1        0.1302
     38 C          -6.0411   57.9727   76.4219 C.ar    1  UNL1        0.0079
     39 C          -6.2573   56.8292   77.3794 C.3     1  UNL1        0.0339
     40 C          -3.2485   59.4339   74.3293 C.3     1  UNL1        0.0342
@<TRIPOS>UNITY_ATOM_ATTR
5 1
charge 1
24 1
charge 1
@<TRIPOS>BOND
     1    32    33    1
     2    33    38   ar
     3    33    34   ar
     4    34    35   ar
     5    35    36   ar
     6    36    37   ar
     7    36    40    1
     8    37    38   ar
     9    37    31    1
    10    38    39    1
    11    31    30    1
    12    30    29    1
    13    29    28    1
    14    28    27    1
    15    27    24    1
    16    24    23    1
    17    23    22    1
    18    22     1    1
    19     1     2    1
    20     2     3    1
    21     3     4    1
    22     4     5    1
    23     5     8    1
    24     8     9    1
    25     9    10    1
    26    10    11    1
    27    11    12    1
    28    12    13    1
    29    13    18   ar
    30    13    14   ar
    31    14    15   ar
    32    14    21    1
    33    15    16   ar
    34    16    17   ar
    35    17    18   ar
    36    17    20    1
    37    18    19    1
    38    24    25    1
    39    24    26    1
    40     5     6    1
    41     5     7    1
#	Name:			ZINC31885569
#	Creating user name:	trannguyen
#	Creation time:		Thu Dec  1 16:45:04 2022


#	Modifying user name:	trannguyen
#	Modification time:	Thu Dec  1 16:45:04 2022

@<TRIPOS>MOLECULE
ZINC31885569
 22 23 0 0 0
SMALL
GASTEIGER

@<TRIPOS>ATOM
      1 N          -4.4228   60.6772   75.1461 N.ar    1  UNL1       -0.2533
      2 C          -5.7171   60.4381   74.8438 C.ar    1  UNL1        0.0978
      3 C          -6.4331   61.5328   75.1809 C.ar    1  UNL1        0.0705
      4 C          -5.5416   62.4849   75.7127 C.ar    1  UNL1        0.1047
      5 N          -4.3320   61.9670   75.6847 N.ar    1  UNL1       -0.1695
      6 C          -5.9018   63.8358   76.2107 C.ar    1  UNL1        0.0299
      7 C          -5.9199   64.9210   75.3370 C.ar    1  UNL1        0.0033
      8 C          -6.2550   66.1752   75.8046 C.ar    1  UNL1        0.0115
      9 C          -6.5727   66.3571   77.1400 C.ar    1  UNL1        0.0585
     10 C          -6.5570   65.2830   78.0124 C.ar    1  UNL1        0.0228
     11 C          -6.2229   64.0233   77.5543 C.ar    1  UNL1        0.0600
     12 CL         -6.2098   62.6752   78.6480 Cl      1  UNL1       -0.0822
     13 CL         -6.9934   67.9378   77.7214 Cl      1  UNL1       -0.0822
     14 C          -7.9214   61.7048   75.0176 C.3     1  UNL1        0.1299
     15 N          -8.4783   60.5287   74.3360 N.4     1  UNL1        0.2359
     16 H          -8.0447   60.4307   73.4180 H       1  UNL1        0.2008
     17 H          -9.4856   60.6452   74.2255 H       1  UNL1        0.2008
     18 H          -8.2915   59.6938   74.8913 H       1  UNL1        0.2008
     19 C          -2.3981   59.7665   76.1719 C.3     1  UNL1        0.0244
     20 C          -3.3068   59.7505   74.9411 C.3     1  UNL1        0.0867
     21 C          -3.8507   58.3367   74.7268 C.3     1  UNL1        0.0244
     22 C          -2.5061   60.1809   73.7104 C.3     1  UNL1        0.0244
@<TRIPOS>UNITY_ATOM_ATTR
15 1
charge 1
@<TRIPOS>BOND
     1    19    20    1
     2    20    21    1
     3    20    22    1
     4    20     1    1
     5     1     5   ar
     6     1     2   ar
     7     2     3   ar
     8     3     4   ar
     9     3    14    1
    10     4     5   ar
    11     4     6    1
    12     6    11   ar
    13     6     7   ar
    14     7     8   ar
    15     8     9   ar
    16     9    10   ar
    17     9    13    1
    18    10    11   ar
    19    11    12    1
    20    14    15    1
    21    15    16    1
    22    15    17    1
    23    15    18    1
#	Name:			ZINC31897778
#	Creating user name:	trannguyen
#	Creation time:		Thu Dec  1 16:45:04 2022


#	Modifying user name:	trannguyen
#	Modification time:	Thu Dec  1 16:45:04 2022

@<TRIPOS>MOLECULE
ZINC31897778
 44 46 0 0 0
SMALL
GASTEIGER

@<TRIPOS>ATOM
      1 C           1.9643   59.7830   76.0726 C.3     1  UNL1        0.0213
      2 C           2.6530   58.4356   76.2980 C.3     1  UNL1        0.0019
      3 C           3.0790   57.8489   74.9508 C.3     1  UNL1        0.0039
      4 C           1.8434   57.6335   74.0747 C.3     1  UNL1        0.0473
      5 C           2.2668   57.5523   72.6067 C.3     1  UNL1        0.2054
      6 O           1.2236   58.0731   71.7805 O.3     1  UNL1       -0.4755
      7 C           3.8986   60.6800   68.3406 C.3     1  UNL1        0.0311
      8 C           3.0309   61.6314   69.1235 C.ar    1  UNL1       -0.0188
      9 C           3.0421   63.0028   68.8579 C.ar    1  UNL1        0.0138
     10 C           3.8630   63.5473   67.8491 C.ar    1  UNL1        0.0020
     11 C           3.8445   64.8859   67.6218 C.ar    1  UNL1        0.0115
     12 C           3.0295   65.7421   68.3647 C.ar    1  UNL1        0.0592
     13 C           2.2157   65.2799   69.3497 C.ar    1  UNL1        0.0305
     14 C           2.1852   63.8993   69.6398 C.ar    1  UNL1        0.0818
     15 N           1.3982   63.4221   70.5979 N.ar    1  UNL1       -0.2453
     16 C           1.3587   62.1248   70.8810 C.ar    1  UNL1        0.0811
     17 C           2.1890   61.1705   70.1393 C.ar    1  UNL1        0.0168
     18 C           2.1204   59.8023   70.4685 C.ar    1  UNL1        0.0381
     19 C           1.2867   59.3938   71.4663 C.ar    1  UNL1        0.1386
     20 C           0.4899   60.3037   72.1707 C.ar    1  UNL1        0.0384
     21 C           0.5172   61.6333   71.9029 C.ar    1  UNL1        0.0222
     22 CL          3.0563   67.4434   68.0201 Cl      1  UNL1       -0.0822
     23 C           0.7850   59.9208   77.0376 C.3     1  UNL1        0.0896
     24 N          -0.3312   60.5787   76.3540 N.am    1  UNL1       -0.2998
     25 C          -1.3248   59.8401   75.8213 C.2     1  UNL1        0.2719
     26 O          -1.2949   58.6309   75.9079 O.2     1  UNL1       -0.2690
     27 H          -0.3556   61.5604   76.2836 H       1  UNL1        0.1496
     28 C          -2.4729   60.5170   75.1179 C.3     1  UNL1        0.1267
     29 N          -1.9613   61.6237   74.2984 N.4     1  UNL1        0.2347
     30 H          -1.3059   61.2598   73.6067 H       1  UNL1        0.2007
     31 H          -1.4844   62.2978   74.8972 H       1  UNL1        0.2007
     32 H          -2.7384   62.0817   73.8224 H       1  UNL1        0.2007
     33 C          -3.1883   59.5058   74.2198 C.3     1  UNL1        0.0680
     34 C          -4.5536   59.1660   74.8208 C.3     1  UNL1        0.0492
     35 C          -5.5565   60.2644   74.4623 C.3     1  UNL1        0.1740
     36 N          -6.9167   59.7246   74.5294 N.pl3   1  UNL1       -0.2651
     37 C          -7.8482   60.3818   75.1614 C.cat   1  UNL1        0.3417
     38 N          -7.5892   61.6392   75.6532 N.pl3   1  UNL1       -0.2918
     39 N          -9.0897   59.8175   75.3361 N.pl3   1  UNL1       -0.2918
     40 H          -7.1272   58.8654   74.0973 H       1  UNL1        0.2586
     41 H          -6.7002   62.0434   75.5281 H       1  UNL1        0.2545
     42 H          -8.2927   62.1356   76.1306 H       1  UNL1        0.2545
     43 H          -9.2751   58.9170   74.9839 H       1  UNL1        0.2545
     44 H          -9.7933   60.3137   75.8134 H       1  UNL1        0.2545
@<TRIPOS>UNITY_ATOM_ATTR
29 1
charge 1
36 1
charge 1
@<TRIPOS>BOND
     1     7     8    1
     2     8    17   ar
     3     8     9   ar
     4     9    14   ar
     5     9    10   ar
     6    10    11   ar
     7    11    12   ar
     8    12    13   ar
     9    12    22    1
    10    13    14   ar
    11    14    15   ar
    12    15    16   ar
    13    16    21   ar
    14    16    17   ar
    15    17    18   ar
    16    18    19   ar
    17    19    20   ar
    18    19     6    1
    19    20    21   ar
    20     6     5    1
    21     5     4    1
    22     4     3    1
    23     3     2    1
    24     2     1    1
    25     1    23    1
    26    23    24    1
    27    24    25   am
    28    25    26    2
    29    25    28    1
    30    28    33    1
    31    28    29    1
    32    33    34    1
    33    34    35    1
    34    35    36    1
    35    36    37    2
    36    37    38    1
    37    37    39    1
    38    24    27    1
    39    36    40    1
    40    38    41    1
    41    38    42    1
    42    39    43    1
    43    39    44    1
    44    29    30    1
    45    29    31    1
    46    29    32    1
#	Name:			ZINC31948790
#	Creating user name:	trannguyen
#	Creation time:		Thu Dec  1 16:45:04 2022


#	Modifying user name:	trannguyen
#	Modification time:	Thu Dec  1 16:45:04 2022

@<TRIPOS>MOLECULE
ZINC31948790
 20 22 0 0 0
SMALL
GASTEIGER

@<TRIPOS>ATOM
      1 C           1.5116   63.1787   70.1098 C.3     1  UNL1        0.1178
      2 N           2.1011   61.8634   69.8476 N.pl3   1  UNL1       -0.2798
      3 C           1.7092   60.7689   70.5974 C.ar    1  UNL1        0.0580
      4 C           0.7663   60.7401   71.6395 C.ar    1  UNL1        0.0153
      5 C           0.4738   59.5680   72.2947 C.ar    1  UNL1        0.0013
      6 C           1.0950   58.3791   71.9516 C.ar    1  UNL1        0.0006
      7 C           2.0276   58.3768   70.9290 C.ar    1  UNL1        0.0078
      8 C           2.3212   59.5492   70.2738 C.ar    1  UNL1        0.0442
      9 S           3.4207   59.9767   68.9456 S.3     1  UNL1       -0.0708
     10 C           3.0433   61.7196   68.8625 C.2     1  UNL1        0.0821
     11 C           3.5656   62.6805   68.0155 C.2     1  UNL1        0.0218
     12 C           3.0329   63.9694   68.0102 C.2     1  UNL1        0.0081
     13 C           3.8216   65.0428   68.3672 C.2     1  UNL1        0.0752
     14 C           3.2861   66.3385   68.3618 C.2     1  UNL1        0.2847
     15 N           3.8140   67.2610   67.6003 N.2     1  UNL1       -0.1846
     16 C           5.0393   66.9899   66.8361 C.3     1  UNL1        0.3169
     17 C           4.7790   67.3265   65.3601 C.3     1  UNL1        0.0850
     18 C           4.2775   68.7685   65.2523 C.3     1  UNL1        0.0144
     19 C           2.9601   68.9107   66.0180 C.3     1  UNL1        0.0850
     20 C           3.1967   68.5903   67.4973 C.3     1  UNL1        0.3169
@<TRIPOS>UNITY_ATOM_ATTR
15 1
charge 1
@<TRIPOS>BOND
     1     1     2    1
     2     2    10    1
     3     2     3    1
     4     3     8   ar
     5     3     4   ar
     6     4     5   ar
     7     5     6   ar
     8     6     7   ar
     9     7     8   ar
    10     8     9    1
    11     9    10    1
    12    10    11    2
    13    11    12    1
    14    12    13    2
    15    13    14    1
    16    14    15    2
    17    15    20    1
    18    15    16    1
    19    16    17    1
    20    17    18    1
    21    18    19    1
    22    19    20    1
#	Name:			ZINC31977097
#	Creating user name:	trannguyen
#	Creation time:		Thu Dec  1 16:45:04 2022


#	Modifying user name:	trannguyen
#	Modification time:	Thu Dec  1 16:45:04 2022

@<TRIPOS>MOLECULE
ZINC31977097
 38 40 0 0 0
SMALL
GASTEIGER

@<TRIPOS>ATOM
      1 C          -5.4248   62.9596   76.8434 C.3     1  UNL1        0.1523
      2 C          -5.1194   62.0609   75.6343 C.3     1  UNL1        0.0661
      3 C          -6.2796   62.2166   74.6244 C.3     1  UNL1        0.0614
      4 C          -7.3331   61.1448   75.0499 C.3     1  UNL1        0.0609
      5 C          -6.6890   60.4521   76.2728 C.3     1  UNL1        0.0556
      6 N          -5.2259   60.6510   76.0947 N.4     1  UNL1        0.2681
      7 C          -7.1054   61.2335   77.5293 C.3     1  UNL1        0.0601
      8 C          -6.8730   62.7272   77.2837 C.3     1  UNL1        0.0442
      9 H          -4.6948   60.4707   76.9467 H       1  UNL1        0.2062
     10 C          -7.8084   63.2092   76.2049 C.ar    1  UNL1       -0.0214
     11 C          -7.3632   64.1122   75.2575 C.ar    1  UNL1       -0.0020
     12 C          -8.2185   64.5506   74.2644 C.ar    1  UNL1        0.0293
     13 C          -9.5251   64.0942   74.2255 C.ar    1  UNL1        0.1401
     14 C          -9.9715   63.1941   75.1783 C.ar    1  UNL1        0.0293
     15 C          -9.1126   62.7523   76.1668 C.ar    1  UNL1       -0.0020
     16 F         -10.3639   64.5270   73.2590 F       1  UNL1       -0.2042
     17 C          -5.2403   64.4046   76.4577 C.2     1  UNL1        0.3225
     18 O          -4.5563   64.6928   75.5043 O.2     1  UNL1       -0.2499
     19 C          -5.7445   66.7254   76.6563 C.3     1  UNL1        0.2556
     20 O          -5.8358   65.3716   77.1732 O.3     1  UNL1       -0.4442
     21 C          -4.6877   59.7268   75.0877 C.3     1  UNL1        0.1111
     22 C          -3.1588   59.7666   75.1244 C.3     1  UNL1        0.1216
     23 C          -2.6316   60.3331   73.8044 C.3     1  UNL1        0.1121
     24 N          -1.2051   60.6549   73.9447 N.4     1  UNL1        0.2837
     25 H          -1.1129   61.6707   73.9585 H       1  UNL1        0.2073
     26 C          -0.6703   60.1359   75.2106 C.3     1  UNL1        0.1174
     27 C           0.8458   59.9674   75.0930 C.3     1  UNL1        0.1144
     28 S           1.3590   58.4724   75.9831 S.3     1  UNL1       -0.1620
     29 H           1.0159   58.5853   77.2943 H       1  UNL1        0.1025
     30 C          -0.4359   60.1473   72.8008 C.3     1  UNL1        0.1914
     31 C          -0.0006   61.3022   71.9359 C.2     1  UNL1        0.2785
     32 O          -0.4680   62.4063   72.1184 O.2     1  UNL1       -0.2687
     33 N           0.9081   61.1079   70.9597 N.am    1  UNL1       -0.2987
     34 H           1.2875   60.2116   70.8116 H       1  UNL1        0.1496
     35 C           1.3313   62.2306   70.1190 C.3     1  UNL1        0.1009
     36 C           2.0316   61.6955   68.8683 C.3     1  UNL1        0.0746
     37 S           3.4071   62.7935   68.4291 S.3     1  UNL1       -0.1662
     38 H           2.9290   64.0423   68.1817 H       1  UNL1        0.1023
@<TRIPOS>UNITY_ATOM_ATTR
6 1
charge 1
24 1
charge 1
@<TRIPOS>BOND
     1    19    20    1
     2    20    17    1
     3    17    18    2
     4    17     1    1
     5     1     8    1
     6     1     2    1
     7     2     6    1
     8     2     3    1
     9     3     4    1
    10     4     5    1
    11     5     6    1
    12     5     7    1
    13     6    21    1
    14    21    22    1
    15    22    23    1
    16    23    24    1
    17    24    26    1
    18    24    30    1
    19    26    27    1
    20    27    28    1
    21    30    31    1
    22    31    32    2
    23    31    33   am
    24    33    35    1
    25    35    36    1
    26    36    37    1
    27     7     8    1
    28     8    10    1
    29    10    15   ar
    30    10    11   ar
    31    11    12   ar
    32    12    13   ar
    33    13    14   ar
    34    13    16    1
    35    14    15   ar
    36     6     9    1
    37    24    25    1
    38    28    29    1
    39    33    34    1
    40    37    38    1
#	Name:			ZINC31977100
#	Creating user name:	trannguyen
#	Creation time:		Thu Dec  1 16:45:04 2022


#	Modifying user name:	trannguyen
#	Modification time:	Thu Dec  1 16:45:04 2022

@<TRIPOS>MOLECULE
ZINC31977100
 47 49 0 0 0
SMALL
GASTEIGER

@<TRIPOS>ATOM
      1 N          -0.0617   61.3333   72.8696 N.4     1  UNL1        0.2895
      2 H          -0.0191   61.8744   73.7332 H       1  UNL1        0.2074
      3 C           0.3283   59.9520   73.1827 C.3     1  UNL1        0.1676
      4 C           0.8843   59.8893   74.6067 C.3     1  UNL1        0.1642
      5 N           1.5320   58.5886   74.8227 N.4     1  UNL1        0.2579
      6 H           0.8139   57.8720   74.9291 H       1  UNL1        0.2039
      7 H           2.1252   58.3834   74.0187 H       1  UNL1        0.2039
      8 C           2.2610   59.9827   76.6995 C.3     1  UNL1        0.0661
      9 C           2.3701   58.6117   76.0289 C.3     1  UNL1        0.0787
     10 C           1.9024   57.5458   76.9861 C.ar    1  UNL1        0.0601
     11 C           1.3100   57.9023   78.1823 C.ar    1  UNL1        0.0042
     12 C           0.8807   56.9249   79.0606 C.ar    1  UNL1        0.0001
     13 C           1.0425   55.5884   78.7444 C.ar    1  UNL1        0.0031
     14 C           1.6342   55.2268   77.5499 C.ar    1  UNL1        0.0365
     15 C           2.0612   56.2059   76.6642 C.ar    1  UNL1        0.1349
     16 O           2.6385   55.8527   75.4857 O.3     1  UNL1       -0.5056
     17 H           2.9265   56.5146   74.8882 H       1  UNL1        0.2922
     18 C           0.8716   61.9393   71.9107 C.3     1  UNL1        0.1676
     19 C           0.0856   62.5372   70.7421 C.3     1  UNL1        0.1642
     20 N           0.9002   63.5635   70.0781 N.4     1  UNL1        0.2579
     21 H           0.9692   64.3795   70.6861 H       1  UNL1        0.2039
     22 H           0.4534   63.8121   69.1956 H       1  UNL1        0.2039
     23 C           2.2509   63.0609   69.7936 C.3     1  UNL1        0.0787
     24 C           2.1861   62.0406   68.6554 C.3     1  UNL1        0.0661
     25 C           3.1393   64.2089   69.3891 C.ar    1  UNL1        0.0601
     26 C           2.5815   65.3833   68.9214 C.ar    1  UNL1        0.0042
     27 C           3.3959   66.4369   68.5502 C.ar    1  UNL1        0.0001
     28 C           4.7704   66.3186   68.6462 C.ar    1  UNL1        0.0031
     29 C           5.3329   65.1467   69.1130 C.ar    1  UNL1        0.0365
     30 C           4.5174   64.0896   69.4913 C.ar    1  UNL1        0.1349
     31 O           5.0683   62.9376   69.9563 O.3     1  UNL1       -0.5056
     32 H           4.5170   62.2243   70.2115 H       1  UNL1        0.2922
     33 C          -1.4416   61.3901   72.3690 C.3     1  UNL1        0.1676
     34 C          -2.3533   60.5810   73.2936 C.3     1  UNL1        0.1642
     35 N          -2.7645   61.4166   74.4297 N.4     1  UNL1        0.2579
     36 H          -3.0731   62.3243   74.0816 H       1  UNL1        0.2039
     37 H          -1.9681   61.5265   75.0573 H       1  UNL1        0.2039
     38 C          -3.8641   60.7886   75.1744 C.3     1  UNL1        0.0787
     39 C          -5.0853   60.6529   74.2629 C.3     1  UNL1        0.0661
     40 C          -3.4356   59.4232   75.6467 C.ar    1  UNL1        0.0601
     41 C          -4.1062   58.2977   75.2077 C.ar    1  UNL1        0.0042
     42 C          -3.7136   57.0449   75.6407 C.ar    1  UNL1        0.0001
     43 C          -2.6490   56.9147   76.5135 C.ar    1  UNL1        0.0031
     44 C          -1.9753   58.0366   76.9553 C.ar    1  UNL1        0.0365
     45 C          -2.3641   59.2948   76.5182 C.ar    1  UNL1        0.1349
     46 O          -1.6993   60.3998   76.9469 O.3     1  UNL1       -0.5056
     47 H          -1.9625   61.2491   76.6512 H       1  UNL1        0.2922
@<TRIPOS>UNITY_ATOM_ATTR
1 1
charge 1
5 1
charge 1
20 1
charge 1
35 1
charge 1
@<TRIPOS>BOND
     1     8     9    1
     2     9    10    1
     3     9     5    1
     4    10    15   ar
     5    10    11   ar
     6    11    12   ar
     7    12    13   ar
     8    13    14   ar
     9    14    15   ar
    10    15    16    1
    11     5     4    1
    12     4     3    1
    13     3     1    1
    14     1    18    1
    15     1    33    1
    16    18    19    1
    17    19    20    1
    18    20    23    1
    19    23    24    1
    20    23    25    1
    21    25    30   ar
    22    25    26   ar
    23    26    27   ar
    24    27    28   ar
    25    28    29   ar
    26    29    30   ar
    27    30    31    1
    28    33    34    1
    29    34    35    1
    30    35    38    1
    31    38    39    1
    32    38    40    1
    33    40    45   ar
    34    40    41   ar
    35    41    42   ar
    36    42    43   ar
    37    43    44   ar
    38    44    45   ar
    39    45    46    1
    40    16    17    1
    41     5     6    1
    42     5     7    1
    43     1     2    1
    44    20    21    1
    45    20    22    1
    46    31    32    1
    47    35    36    1
    48    35    37    1
    49    46    47    1
#	Name:			ZINC32011422
#	Creating user name:	trannguyen
#	Creation time:		Thu Dec  1 16:45:04 2022


#	Modifying user name:	trannguyen
#	Modification time:	Thu Dec  1 16:45:04 2022

@<TRIPOS>MOLECULE
ZINC32011422
 43 45 0 0 0
SMALL
GASTEIGER

@<TRIPOS>ATOM
      1 C           0.1304   61.0767   72.4373 C.ar    1  UNL1       -0.0006
      2 C          -1.2355   61.1603   72.1679 C.ar    1  UNL1       -0.0000
      3 C          -2.1482   60.6793   73.0803 C.ar    1  UNL1       -0.0003
      4 C          -1.7064   60.1085   74.2739 C.ar    1  UNL1       -0.0040
      5 C          -0.3407   60.0248   74.5432 C.ar    1  UNL1       -0.0225
      6 C           0.5721   60.5060   73.6304 C.ar    1  UNL1       -0.0043
      7 C           1.7592   60.7194   70.5837 C.ar    1  UNL1       -0.0225
      8 C           2.6725   61.2071   69.6709 C.ar    1  UNL1       -0.0085
      9 C           2.9468   62.5618   69.6197 C.ar    1  UNL1       -0.0223
     10 C           2.3085   63.4353   70.4818 C.ar    1  UNL1       -0.0043
     11 C           1.3896   62.9597   71.3948 C.ar    1  UNL1       -0.0006
     12 C           1.1132   61.5947   71.4546 C.ar    1  UNL1       -0.0040
     13 C           1.4610   59.2431   70.6380 C.3     1  UNL1        0.0263
     14 C           2.1458   57.4550   72.2431 C.3     1  UNL1        0.0003
     15 C           2.6522   58.5044   71.2516 C.3     1  UNL1        0.0044
     16 C           3.4508   57.8154   70.1433 C.3     1  UNL1        0.0003
     17 C           3.9454   63.0880   68.6212 C.3     1  UNL1        0.0324
     18 C           4.5922   64.3616   69.1696 C.3     1  UNL1        0.0654
     19 C           4.4869   65.4766   68.1272 C.3     1  UNL1        0.0997
     20 N           3.2633   65.2929   67.3354 N.4     1  UNL1        0.2323
     21 H           3.2959   64.3889   66.8641 H       1  UNL1        0.2005
     22 H           3.1932   66.0363   66.6405 H       1  UNL1        0.2005
     23 H           2.4513   65.3259   67.9518 H       1  UNL1        0.2005
     24 C          -2.6889   59.5911   75.2565 C.ar    1  UNL1       -0.0004
     25 C          -3.3109   60.4640   76.1486 C.ar    1  UNL1        0.0031
     26 C          -4.2243   59.9799   77.0607 C.ar    1  UNL1        0.0366
     27 C          -4.5253   58.6246   77.0917 C.ar    1  UNL1        0.1348
     28 C          -3.9075   57.7530   76.2052 C.ar    1  UNL1        0.0118
     29 C          -2.9971   58.2319   75.2866 C.ar    1  UNL1       -0.0013
     30 C          -4.2367   56.2828   76.2426 C.3     1  UNL1        0.0294
     31 C          -2.9413   55.4693   76.2116 C.3     1  UNL1        0.0045
     32 C          -2.5698   55.0475   77.6346 C.3     1  UNL1        0.0003
     33 C          -3.1421   54.2235   75.3464 C.3     1  UNL1        0.0003
     34 O          -5.4260   58.1506   77.9917 O.3     1  UNL1       -0.4694
     35 C          -6.7553   58.6692   77.9139 C.3     1  UNL1        0.2655
     36 C          -7.6967   57.5830   77.3896 C.3     1  UNL1        0.1475
     37 N          -7.8176   57.7023   75.9305 N.4     1  UNL1        0.2352
     38 H          -8.1932   58.6207   75.6945 H       1  UNL1        0.2006
     39 H          -8.4451   56.9781   75.5810 H       1  UNL1        0.2006
     40 H          -6.8982   57.5909   75.5029 H       1  UNL1        0.2006
     41 C           0.1368   59.4077   75.8325 C.3     1  UNL1        0.0224
     42 C           1.4684   58.6931   75.5934 C.3     1  UNL1        0.0047
     43 C           0.3274   60.5038   76.8827 C.3     1  UNL1        0.0047
@<TRIPOS>UNITY_ATOM_ATTR
20 1
charge 1
37 1
charge 1
@<TRIPOS>BOND
     1    14    15    1
     2    15    16    1
     3    15    13    1
     4    13     7    1
     5     7    12   ar
     6     7     8   ar
     7     8     9   ar
     8     9    10   ar
     9     9    17    1
    10    10    11   ar
    11    11    12   ar
    12    12     1    1
    13     1     6   ar
    14     1     2   ar
    15     2     3   ar
    16     3     4   ar
    17     4     5   ar
    18     4    24    1
    19     5     6   ar
    20     5    41    1
    21    41    42    1
    22    41    43    1
    23    24    29   ar
    24    24    25   ar
    25    25    26   ar
    26    26    27   ar
    27    27    28   ar
    28    27    34    1
    29    28    29   ar
    30    28    30    1
    31    30    31    1
    32    31    32    1
    33    31    33    1
    34    34    35    1
    35    35    36    1
    36    36    37    1
    37    17    18    1
    38    18    19    1
    39    19    20    1
    40    37    38    1
    41    37    39    1
    42    37    40    1
    43    20    21    1
    44    20    22    1
    45    20    23    1
#	Name:			ZINC32024813
#	Creating user name:	trannguyen
#	Creation time:		Thu Dec  1 16:45:04 2022


#	Modifying user name:	trannguyen
#	Modification time:	Thu Dec  1 16:45:04 2022

@<TRIPOS>MOLECULE
ZINC32024813
 39 43 0 0 0
SMALL
GASTEIGER

@<TRIPOS>ATOM
      1 C          -1.2273   61.2130   72.6501 C.ar    1  UNL1        0.1453
      2 C          -1.0451   59.9529   73.1391 C.ar    1  UNL1        0.0406
      3 C          -2.1808   59.6413   73.8998 C.ar    1  UNL1        0.0406
      4 C          -3.0075   60.7246   73.8426 C.ar    1  UNL1        0.1453
      5 O          -2.4162   61.6706   73.0877 O.2     1  UNL1       -0.4535
      6 C           1.0505   62.1057   72.1925 C.ar    1  UNL1        0.0033
      7 C           1.9297   62.7920   71.3953 C.ar    1  UNL1        0.0073
      8 C           1.4961   63.3371   70.1846 C.ar    1  UNL1        0.0779
      9 C           0.1666   63.1835   69.7850 C.ar    1  UNL1        0.0073
     10 C          -0.7140   62.4975   70.5810 C.ar    1  UNL1        0.0033
     11 C          -0.2808   61.9515   71.7933 C.ar    1  UNL1        0.0346
     12 C           2.4452   64.0776   69.3255 C.2     1  UNL1        0.2760
     13 N           2.2849   65.3215   69.0111 N.2     1  UNL1       -0.2566
     14 C           3.3896   65.7728   68.1538 C.3     1  UNL1        0.2599
     15 C           4.2756   64.5213   67.9943 C.3     1  UNL1        0.2555
     16 N           3.5688   63.5026   68.7885 N.pl3   1  UNL1       -0.1899
     17 H           1.5321   65.8845   69.3037 H       1  UNL1        0.3049
     18 C           3.9933   62.1128   68.9739 C.3     1  UNL1        0.2049
     19 C           2.9652   61.1761   68.3363 C.3     1  UNL1        0.0825
     20 C           2.7947   59.9336   69.2128 C.3     1  UNL1        0.1414
     21 O           3.7429   58.9395   68.8192 O.3     1  UNL1       -0.3818
     22 H           3.5961   58.7026   67.8901 H       1  UNL1        0.2104
     23 C          -4.3222   60.8426   74.5006 C.ar    1  UNL1        0.0346
     24 C          -4.6792   62.0327   75.1419 C.ar    1  UNL1        0.0033
     25 C          -5.9040   62.1438   75.7479 C.ar    1  UNL1        0.0073
     26 C          -6.7903   61.0643   75.7352 C.ar    1  UNL1        0.0779
     27 C          -6.4320   59.8730   75.1001 C.ar    1  UNL1        0.0073
     28 C          -5.2101   59.7624   74.4883 C.ar    1  UNL1        0.0033
     29 C          -8.1090   61.1830   76.3941 C.2     1  UNL1        0.2760
     30 N          -8.3490   60.7143   77.5751 N.2     1  UNL1       -0.2566
     31 C          -9.7413   60.9899   77.9551 C.3     1  UNL1        0.2599
     32 C         -10.3230   61.7313   76.7352 C.3     1  UNL1        0.2555
     33 N          -9.1850   61.7947   75.8030 N.pl3   1  UNL1       -0.1899
     34 H          -7.6940   60.2415   78.1379 H       1  UNL1        0.3049
     35 C          -9.1994   62.4068   74.4722 C.3     1  UNL1        0.2049
     36 C          -8.9774   63.9151   74.6020 C.3     1  UNL1        0.0825
     37 C         -10.1847   64.6595   74.0283 C.3     1  UNL1        0.1414
     38 O         -10.3045   64.3697   72.6341 O.3     1  UNL1       -0.3818
     39 H          -9.4999   64.6555   72.1741 H       1  UNL1        0.2104
@<TRIPOS>UNITY_ATOM_ATTR
13 1
charge 1
30 1
charge 1
@<TRIPOS>BOND
     1     6    11   ar
     2     6     7   ar
     3     7     8   ar
     4     8     9   ar
     5     8    12    1
     6     9    10   ar
     7    10    11   ar
     8    11     1    1
     9     1     5   ar
    10     1     2   ar
    11     2     3   ar
    12     3     4   ar
    13     4     5   ar
    14     4    23    1
    15    23    28   ar
    16    23    24   ar
    17    24    25   ar
    18    25    26   ar
    19    26    27   ar
    20    26    29    1
    21    27    28   ar
    22    29    33    1
    23    29    30    2
    24    30    31    1
    25    31    32    1
    26    32    33    1
    27    33    35    1
    28    35    36    1
    29    36    37    1
    30    37    38    1
    31    12    16    1
    32    12    13    2
    33    13    14    1
    34    14    15    1
    35    15    16    1
    36    16    18    1
    37    18    19    1
    38    19    20    1
    39    20    21    1
    40    30    34    1
    41    38    39    1
    42    13    17    1
    43    21    22    1
#	Name:			ZINC32053017
#	Creating user name:	trannguyen
#	Creation time:		Thu Dec  1 16:45:04 2022


#	Modifying user name:	trannguyen
#	Modification time:	Thu Dec  1 16:45:04 2022

@<TRIPOS>MOLECULE
ZINC32053017
 47 50 0 0 0
SMALL
GASTEIGER

@<TRIPOS>ATOM
      1 C          -2.3662   59.7733   75.4893 C.2     1  UNL1        0.2220
      2 O          -1.8281   58.6865   75.5020 O.2     1  UNL1       -0.2751
      3 N          -1.8339   60.7804   74.7688 N.am    1  UNL1       -0.3041
      4 H          -2.2707   61.6626   74.7585 H       1  UNL1        0.1494
      5 C          -3.9149   58.7694   77.1454 C.3     1  UNL1        0.0096
      6 C          -3.6299   59.9978   76.2789 C.3     1  UNL1        0.0765
      7 C          -4.7963   60.2256   75.3191 C.3     1  UNL1        0.0086
      8 C          -5.8109   59.0597   75.4123 C.3     1  UNL1        0.0005
      9 C          -7.1908   59.7025   75.7297 C.3     1  UNL1        0.0000
     10 C          -6.9956   61.1370   75.2153 C.3     1  UNL1        0.0003
     11 C          -5.5923   61.4752   75.7556 C.3     1  UNL1        0.0005
     12 C          -5.0811   62.7698   75.1726 C.3     1  UNL1        0.0000
     13 C          -6.2326   63.7626   74.9461 C.3     1  UNL1        0.0003
     14 C          -7.3727   63.4958   75.9202 C.3     1  UNL1        0.0038
     15 C          -8.0302   62.1528   75.5706 C.3     1  UNL1        0.0046
     16 C          -8.9516   61.7697   76.7258 C.3     1  UNL1        0.0254
     17 C          -9.9390   62.8938   76.9085 C.2     1  UNL1       -0.0345
     18 C          -9.7239   64.1087   76.5080 C.2     1  UNL1       -0.0467
     19 C          -8.4345   64.5880   75.8858 C.3     1  UNL1        0.0150
     20 C          -8.7215   65.0673   74.4684 C.3     1  UNL1        0.0062
     21 C         -10.2277   65.0951   74.2118 C.3     1  UNL1        0.0299
     22 C         -10.9783   65.8536   75.3006 C.3     1  UNL1        0.1145
     23 C         -10.8330   65.1376   76.6479 C.3     1  UNL1        0.0509
     24 O         -10.4712   67.1856   75.4020 O.3     1  UNL1       -0.3841
     25 C          -7.9119   65.7717   76.7087 C.3     1  UNL1        0.0040
     26 C          -5.5426   61.5092   77.2856 C.3     1  UNL1        0.0000
     27 H          -9.5307   67.1565   75.6375 H       1  UNL1        0.2103
     28 C          -0.6054   60.5621   74.0012 C.3     1  UNL1        0.0955
     29 C          -0.9396   60.5056   72.5092 C.3     1  UNL1        0.0820
     30 C          -0.2820   61.6875   71.7941 C.3     1  UNL1        0.1040
     31 N           1.1114   61.8167   72.2410 N.4     1  UNL1        0.2543
     32 H           1.4663   60.8954   72.4972 H       1  UNL1        0.2035
     33 H           1.1382   62.4458   73.0435 H       1  UNL1        0.2035
     34 C           1.9555   62.3780   71.1779 C.3     1  UNL1        0.1025
     35 C           2.0553   61.3778   70.0244 C.3     1  UNL1        0.0669
     36 C           2.5231   62.1020   68.7604 C.3     1  UNL1        0.0669
     37 C           2.9442   63.5291   69.1165 C.3     1  UNL1        0.1025
     38 N           3.3079   64.2526   67.8908 N.4     1  UNL1        0.2544
     39 H           2.4941   64.7665   67.5529 H       1  UNL1        0.2035
     40 H           3.6177   63.5756   67.1935 H       1  UNL1        0.2035
     41 C           4.4028   65.1988   68.1433 C.3     1  UNL1        0.1085
     42 C           3.9745   66.6020   67.7091 C.3     1  UNL1        0.1213
     43 C           3.1106   67.2329   68.8029 C.3     1  UNL1        0.1056
     44 N           1.7358   67.3918   68.3103 N.4     1  UNL1        0.2324
     45 H           1.7370   67.9949   67.4876 H       1  UNL1        0.2005
     46 H           1.1598   67.8124   69.0394 H       1  UNL1        0.2005
     47 H           1.3561   66.4784   68.0616 H       1  UNL1        0.2005
@<TRIPOS>UNITY_ATOM_ATTR
31 1
charge 1
38 1
charge 1
44 1
charge 1
@<TRIPOS>BOND
     1     5     6    1
     2     6     7    1
     3     6     1    1
     4     7    11    1
     5     7     8    1
     6     8     9    1
     7     9    10    1
     8    10    15    1
     9    10    11    1
    10    11    12    1
    11    11    26    1
    12    12    13    1
    13    13    14    1
    14    14    19    1
    15    14    15    1
    16    15    16    1
    17    16    17    1
    18    17    18    2
    19    18    23    1
    20    18    19    1
    21    19    20    1
    22    19    25    1
    23    20    21    1
    24    21    22    1
    25    22    23    1
    26    22    24    1
    27     1     2    2
    28     1     3   am
    29     3    28    1
    30    28    29    1
    31    29    30    1
    32    30    31    1
    33    31    34    1
    34    34    35    1
    35    35    36    1
    36    36    37    1
    37    37    38    1
    38    38    41    1
    39    41    42    1
    40    42    43    1
    41    43    44    1
    42    24    27    1
    43     3     4    1
    44    31    32    1
    45    31    33    1
    46    38    39    1
    47    38    40    1
    48    44    45    1
    49    44    46    1
    50    44    47    1
